/*---------------------------------------------------------------------------*\
  =========                 |
  \\      /  F ield         | OpenFOAM: The Open Source CFD Toolbox
   \\    /   O peration     | Website:  https://openfoam.org
    \\  /    A nd           | Version:  9
     \\/     M anipulation  |
\*---------------------------------------------------------------------------*/
Build  : 9-c8374a4890ad
Exec   : rhoPimpleFoam
Date   : Dec 30 2021
Time   : 22:14:38
Host   : "endeavouros"
PID    : 1157271
I/O    : uncollated
Case   : /home/ariedinger/uni/gimap/openfoam/03wiki3weeksSeries/day02/01gridConvergence/02shockTube_100
nProcs : 1
sigFpe : Enabling floating point exception trapping (FOAM_SIGFPE).
fileModificationChecking : Monitoring run-time modified files using timeStampMaster (fileModificationSkew 10)
allowSystemOperations : Allowing user-supplied system call operations

// * * * * * * * * * * * * * * * * * * * * * * * * * * * * * * * * * * * * * //
Create time

Create mesh for time = 0


PIMPLE: No convergence criteria found


PIMPLE: No corrector convergence criteria found
        Calculations will do 2 corrections


PIMPLE: Operating solver in transient mode with 2 outer correctors


Reading thermophysical properties

Selecting thermodynamics package 
{
    type            hePsiThermo;
    mixture         pureMixture;
    transport       const;
    thermo          hConst;
    equationOfState perfectGas;
    specie          specie;
    energy          sensibleInternalEnergy;
}

Reading field U

Reading/calculating face flux field phi

Creating turbulence model

Selecting turbulence model type laminar
Selecting laminar stress model Stokes
Creating thermophysical transport model

Selecting thermophysical transport type laminar
Selecting default laminar thermophysical transport model unityLewisFourier
Creating field dpdt

Creating field kinetic energy K

No MRF models present

No fvModels present
No fvConstraints present
Courant Number mean: 0 max: 0

Starting time loop

Courant Number mean: 0 max: 0
Time = 1e-05

PIMPLE: Iteration 1
diagonal:  Solving for rho, Initial residual = 0, Final residual = 0, No Iterations 0
smoothSolver:  Solving for Ux, Initial residual = 1, Final residual = 0, No Iterations 1
smoothSolver:  Solving for e, Initial residual = 4.99382e-17, Final residual = 4.99382e-17, No Iterations 0
smoothSolver:  Solving for p, Initial residual = 1.78207e-05, Final residual = 1.74233e-17, No Iterations 2
diagonal:  Solving for rho, Initial residual = 0, Final residual = 0, No Iterations 0
time step continuity errors : sum local = 1.22669e-16, global = 9.89265e-18, cumulative = 9.89265e-18
PIMPLE: Iteration 2
smoothSolver:  Solving for Ux, Initial residual = 0.000459566, Final residual = 2.46117e-17, No Iterations 1
smoothSolver:  Solving for e, Initial residual = 8.04449e-05, Final residual = 2.47232e-17, No Iterations 1
smoothSolver:  Solving for p, Initial residual = 1.02224e-05, Final residual = 1.27522e-17, No Iterations 2
diagonal:  Solving for rho, Initial residual = 0, Final residual = 0, No Iterations 0
time step continuity errors : sum local = 1.06841e-16, global = -3.95706e-18, cumulative = 5.93559e-18
ExecutionTime = 0.03 s  ClockTime = 0 s

Courant Number mean: 4.03237e-05 max: 0.00357543
Time = 2e-05

PIMPLE: Iteration 1
diagonal:  Solving for rho, Initial residual = 0, Final residual = 0, No Iterations 0
smoothSolver:  Solving for Ux, Initial residual = 0.127353, Final residual = 5.53526e-17, No Iterations 1
smoothSolver:  Solving for e, Initial residual = 8.07572e-05, Final residual = 2.04636e-17, No Iterations 2
smoothSolver:  Solving for p, Initial residual = 7.06073e-05, Final residual = 3.05296e-16, No Iterations 2
diagonal:  Solving for rho, Initial residual = 0, Final residual = 0, No Iterations 0
time step continuity errors : sum local = 6.80614e-16, global = 3.83835e-16, cumulative = 3.8977e-16
PIMPLE: Iteration 2
smoothSolver:  Solving for Ux, Initial residual = 0.0015037, Final residual = 1.86689e-17, No Iterations 1
smoothSolver:  Solving for e, Initial residual = 0.000240089, Final residual = 5.37254e-17, No Iterations 2
smoothSolver:  Solving for p, Initial residual = 2.89315e-05, Final residual = 1.66689e-16, No Iterations 2
diagonal:  Solving for rho, Initial residual = 0, Final residual = 0, No Iterations 0
time step continuity errors : sum local = 3.82351e-16, global = 2.50779e-16, cumulative = 6.40549e-16
ExecutionTime = 0.03 s  ClockTime = 0 s

Courant Number mean: 0.000173663 max: 0.0144494
Time = 3e-05

PIMPLE: Iteration 1
diagonal:  Solving for rho, Initial residual = 0, Final residual = 0, No Iterations 0
smoothSolver:  Solving for Ux, Initial residual = 0.0677232, Final residual = 1.80468e-17, No Iterations 1
smoothSolver:  Solving for e, Initial residual = 0.00019231, Final residual = 6.27612e-17, No Iterations 2
smoothSolver:  Solving for p, Initial residual = 0.000149185, Final residual = 6.44037e-18, No Iterations 3
diagonal:  Solving for rho, Initial residual = 0, Final residual = 0, No Iterations 0
time step continuity errors : sum local = 1.39734e-16, global = 8.82919e-17, cumulative = 7.28841e-16
PIMPLE: Iteration 2
smoothSolver:  Solving for Ux, Initial residual = 0.00154858, Final residual = 4.38622e-18, No Iterations 1
smoothSolver:  Solving for e, Initial residual = 0.000250018, Final residual = 2.9414e-17, No Iterations 3
smoothSolver:  Solving for p, Initial residual = 2.85545e-05, Final residual = 4.35277e-16, No Iterations 2
diagonal:  Solving for rho, Initial residual = 0, Final residual = 0, No Iterations 0
time step continuity errors : sum local = 8.58929e-16, global = 7.1598e-16, cumulative = 1.44482e-15
ExecutionTime = 0.03 s  ClockTime = 0 s

Courant Number mean: 0.000301262 max: 0.0247048
Time = 4e-05

PIMPLE: Iteration 1
diagonal:  Solving for rho, Initial residual = 0, Final residual = 0, No Iterations 0
smoothSolver:  Solving for Ux, Initial residual = 0.0457701, Final residual = 1.22041e-17, No Iterations 1
smoothSolver:  Solving for e, Initial residual = 0.000391817, Final residual = 3.09135e-17, No Iterations 3
smoothSolver:  Solving for p, Initial residual = 0.000217073, Final residual = 6.45533e-18, No Iterations 3
diagonal:  Solving for rho, Initial residual = 0, Final residual = 0, No Iterations 0
time step continuity errors : sum local = 1.25637e-16, global = 7.2711e-17, cumulative = 1.51753e-15
PIMPLE: Iteration 2
smoothSolver:  Solving for Ux, Initial residual = 0.00118188, Final residual = 1.55666e-17, No Iterations 1
smoothSolver:  Solving for e, Initial residual = 0.000192708, Final residual = 2.90847e-17, No Iterations 3
smoothSolver:  Solving for p, Initial residual = 2.09172e-05, Final residual = 4.46106e-16, No Iterations 2
diagonal:  Solving for rho, Initial residual = 0, Final residual = 0, No Iterations 0
time step continuity errors : sum local = 8.7179e-16, global = 7.75336e-16, cumulative = 2.29287e-15
ExecutionTime = 0.03 s  ClockTime = 0 s

Courant Number mean: 0.0003859 max: 0.0313996
Time = 5e-05

PIMPLE: Iteration 1
diagonal:  Solving for rho, Initial residual = 0, Final residual = 0, No Iterations 0
smoothSolver:  Solving for Ux, Initial residual = 0.0343829, Final residual = 7.71509e-18, No Iterations 1
smoothSolver:  Solving for e, Initial residual = 0.000543326, Final residual = 3.24638e-17, No Iterations 3
smoothSolver:  Solving for p, Initial residual = 0.000268893, Final residual = 7.7914e-18, No Iterations 3
diagonal:  Solving for rho, Initial residual = 0, Final residual = 0, No Iterations 0
time step continuity errors : sum local = 1.37013e-16, global = 5.93559e-17, cumulative = 2.35222e-15
PIMPLE: Iteration 2
smoothSolver:  Solving for Ux, Initial residual = 0.000960718, Final residual = 1.24931e-17, No Iterations 1
smoothSolver:  Solving for e, Initial residual = 0.000138285, Final residual = 3.93748e-17, No Iterations 3
smoothSolver:  Solving for p, Initial residual = 1.42112e-05, Final residual = 2.67955e-16, No Iterations 2
diagonal:  Solving for rho, Initial residual = 0, Final residual = 0, No Iterations 0
time step continuity errors : sum local = 5.5844e-16, global = 4.55556e-16, cumulative = 2.80778e-15
ExecutionTime = 0.04 s  ClockTime = 0 s

Courant Number mean: 0.000449063 max: 0.0357379
Time = 6e-05

PIMPLE: Iteration 1
diagonal:  Solving for rho, Initial residual = 0, Final residual = 0, No Iterations 0
smoothSolver:  Solving for Ux, Initial residual = 0.0275308, Final residual = 1.85138e-17, No Iterations 1
smoothSolver:  Solving for e, Initial residual = 0.000651065, Final residual = 6.55657e-17, No Iterations 3
smoothSolver:  Solving for p, Initial residual = 0.000307493, Final residual = 7.41138e-18, No Iterations 3
diagonal:  Solving for rho, Initial residual = 0, Final residual = 0, No Iterations 0
time step continuity errors : sum local = 1.40228e-16, global = 8.28509e-17, cumulative = 2.89063e-15
PIMPLE: Iteration 2
smoothSolver:  Solving for Ux, Initial residual = 0.00071625, Final residual = 3.10498e-18, No Iterations 1
smoothSolver:  Solving for e, Initial residual = 9.08651e-05, Final residual = 9.11543e-17, No Iterations 3
smoothSolver:  Solving for p, Initial residual = 8.42517e-06, Final residual = 1.03807e-16, No Iterations 2
diagonal:  Solving for rho, Initial residual = 0, Final residual = 0, No Iterations 0
time step continuity errors : sum local = 2.71059e-16, global = 1.70648e-16, cumulative = 3.06128e-15
ExecutionTime = 0.04 s  ClockTime = 0 s

Courant Number mean: 0.000487273 max: 0.0379133
Time = 7e-05

PIMPLE: Iteration 1
diagonal:  Solving for rho, Initial residual = 0, Final residual = 0, No Iterations 0
smoothSolver:  Solving for Ux, Initial residual = 0.0230032, Final residual = 9.55253e-18, No Iterations 1
smoothSolver:  Solving for e, Initial residual = 0.000721451, Final residual = 3.06309e-16, No Iterations 3
smoothSolver:  Solving for p, Initial residual = 0.000335278, Final residual = 7.55741e-18, No Iterations 3
diagonal:  Solving for rho, Initial residual = 0, Final residual = 0, No Iterations 0
time step continuity errors : sum local = 1.4097e-16, global = 5.2431e-17, cumulative = 3.11371e-15
PIMPLE: Iteration 2
smoothSolver:  Solving for Ux, Initial residual = 0.000553074, Final residual = 7.9493e-18, No Iterations 1
smoothSolver:  Solving for e, Initial residual = 5.16864e-05, Final residual = 1.99639e-16, No Iterations 3
smoothSolver:  Solving for p, Initial residual = 4.43676e-06, Final residual = 1.18014e-16, No Iterations 2
diagonal:  Solving for rho, Initial residual = 0, Final residual = 0, No Iterations 0
time step continuity errors : sum local = 2.91833e-16, global = 2.19122e-16, cumulative = 3.33283e-15
ExecutionTime = 0.04 s  ClockTime = 0 s

Courant Number mean: 0.000511504 max: 0.0387264
Time = 8e-05

PIMPLE: Iteration 1
diagonal:  Solving for rho, Initial residual = 0, Final residual = 0, No Iterations 0
smoothSolver:  Solving for Ux, Initial residual = 0.0198507, Final residual = 7.73854e-18, No Iterations 1
smoothSolver:  Solving for e, Initial residual = 0.000762266, Final residual = 2.97663e-17, No Iterations 4
smoothSolver:  Solving for p, Initial residual = 0.000354725, Final residual = 8.63221e-18, No Iterations 3
diagonal:  Solving for rho, Initial residual = 0, Final residual = 0, No Iterations 0
time step continuity errors : sum local = 1.41465e-16, global = 6.57861e-17, cumulative = 3.39862e-15
PIMPLE: Iteration 2
smoothSolver:  Solving for Ux, Initial residual = 0.000421738, Final residual = 4.53146e-18, No Iterations 1
smoothSolver:  Solving for e, Initial residual = 3.37287e-05, Final residual = 1.91019e-16, No Iterations 3
smoothSolver:  Solving for p, Initial residual = 4.47841e-06, Final residual = 1.85749e-16, No Iterations 2
diagonal:  Solving for rho, Initial residual = 0, Final residual = 0, No Iterations 0
time step continuity errors : sum local = 4.10545e-16, global = 3.06177e-16, cumulative = 3.7048e-15
ExecutionTime = 0.05 s  ClockTime = 0 s

Courant Number mean: 0.00052512 max: 0.0385794
Time = 9e-05

PIMPLE: Iteration 1
diagonal:  Solving for rho, Initial residual = 0, Final residual = 0, No Iterations 0
smoothSolver:  Solving for Ux, Initial residual = 0.0175531, Final residual = 1.08298e-17, No Iterations 1
smoothSolver:  Solving for e, Initial residual = 0.000780126, Final residual = 3.23531e-17, No Iterations 4
smoothSolver:  Solving for p, Initial residual = 0.000367805, Final residual = 8.63727e-18, No Iterations 3
diagonal:  Solving for rho, Initial residual = 0, Final residual = 0, No Iterations 0
time step continuity errors : sum local = 1.4839e-16, global = 6.28183e-17, cumulative = 3.76761e-15
PIMPLE: Iteration 2
smoothSolver:  Solving for Ux, Initial residual = 0.000329303, Final residual = 9.26283e-18, No Iterations 1
smoothSolver:  Solving for e, Initial residual = 3.30396e-05, Final residual = 2.11949e-16, No Iterations 3
smoothSolver:  Solving for p, Initial residual = 5.08047e-06, Final residual = 4.73234e-16, No Iterations 2
diagonal:  Solving for rho, Initial residual = 0, Final residual = 0, No Iterations 0
time step continuity errors : sum local = 9.26694e-16, global = 4.78062e-16, cumulative = 4.24568e-15
ExecutionTime = 0.05 s  ClockTime = 0 s

Courant Number mean: 0.000532295 max: 0.0378309
Time = 0.0001

PIMPLE: Iteration 1
diagonal:  Solving for rho, Initial residual = 0, Final residual = 0, No Iterations 0
smoothSolver:  Solving for Ux, Initial residual = 0.0158256, Final residual = 9.52828e-18, No Iterations 1
smoothSolver:  Solving for e, Initial residual = 0.000806324, Final residual = 2.87384e-17, No Iterations 4
smoothSolver:  Solving for p, Initial residual = 0.000377583, Final residual = 7.84321e-18, No Iterations 3
diagonal:  Solving for rho, Initial residual = 0, Final residual = 0, No Iterations 0
time step continuity errors : sum local = 1.45175e-16, global = 6.45495e-17, cumulative = 4.31023e-15
PIMPLE: Iteration 2
smoothSolver:  Solving for Ux, Initial residual = 0.000260641, Final residual = 1.02431e-17, No Iterations 1
smoothSolver:  Solving for e, Initial residual = 3.48731e-05, Final residual = 2.13935e-16, No Iterations 3
smoothSolver:  Solving for p, Initial residual = 5.71025e-06, Final residual = 9.97099e-16, No Iterations 2
diagonal:  Solving for rho, Initial residual = 0, Final residual = 0, No Iterations 0
time step continuity errors : sum local = 1.86155e-15, global = 2.54488e-16, cumulative = 4.56471e-15
ExecutionTime = 0.05 s  ClockTime = 0 s

Courant Number mean: 0.000535535 max: 0.0367157
Time = 0.00011

PIMPLE: Iteration 1
diagonal:  Solving for rho, Initial residual = 0, Final residual = 0, No Iterations 0
smoothSolver:  Solving for Ux, Initial residual = 0.0144682, Final residual = 9.51488e-18, No Iterations 1
smoothSolver:  Solving for e, Initial residual = 0.000825542, Final residual = 3.23168e-17, No Iterations 4
smoothSolver:  Solving for p, Initial residual = 0.000383286, Final residual = 1.33028e-17, No Iterations 3
diagonal:  Solving for rho, Initial residual = 0, Final residual = 0, No Iterations 0
time step continuity errors : sum local = 1.34293e-16, global = 7.49368e-17, cumulative = 4.63965e-15
PIMPLE: Iteration 2
smoothSolver:  Solving for Ux, Initial residual = 0.000212129, Final residual = 6.12067e-18, No Iterations 1
smoothSolver:  Solving for e, Initial residual = 3.78025e-05, Final residual = 2.65883e-17, No Iterations 2
smoothSolver:  Solving for p, Initial residual = 6.67313e-06, Final residual = 1.12423e-17, No Iterations 3
diagonal:  Solving for rho, Initial residual = 0, Final residual = 0, No Iterations 0
time step continuity errors : sum local = 9.1507e-17, global = 2.37424e-17, cumulative = 4.66339e-15
ExecutionTime = 0.06 s  ClockTime = 0 s

Courant Number mean: 0.000536912 max: 0.0354125
Time = 0.00012

PIMPLE: Iteration 1
diagonal:  Solving for rho, Initial residual = 0, Final residual = 0, No Iterations 0
smoothSolver:  Solving for Ux, Initial residual = 0.0133659, Final residual = 4.23262e-18, No Iterations 1
smoothSolver:  Solving for e, Initial residual = 0.000831336, Final residual = 1.71544e-16, No Iterations 2
smoothSolver:  Solving for p, Initial residual = 0.000383031, Final residual = 1.53317e-17, No Iterations 3
diagonal:  Solving for rho, Initial residual = 0, Final residual = 0, No Iterations 0
time step continuity errors : sum local = 1.45422e-16, global = 6.23237e-17, cumulative = 4.72572e-15
PIMPLE: Iteration 2
smoothSolver:  Solving for Ux, Initial residual = 0.00018033, Final residual = 1.86562e-18, No Iterations 1
smoothSolver:  Solving for e, Initial residual = 3.73864e-05, Final residual = 3.47302e-17, No Iterations 2
smoothSolver:  Solving for p, Initial residual = 7.04192e-06, Final residual = 8.60501e-18, No Iterations 3
diagonal:  Solving for rho, Initial residual = 0, Final residual = 0, No Iterations 0
time step continuity errors : sum local = 1.02142e-16, global = 7.17217e-18, cumulative = 4.73289e-15
ExecutionTime = 0.06 s  ClockTime = 0 s

Courant Number mean: 0.000538019 max: 0.034053
Time = 0.00013

PIMPLE: Iteration 1
diagonal:  Solving for rho, Initial residual = 0, Final residual = 0, No Iterations 0
smoothSolver:  Solving for Ux, Initial residual = 0.0124471, Final residual = 8.46762e-18, No Iterations 1
smoothSolver:  Solving for e, Initial residual = 0.000822143, Final residual = 3.24796e-16, No Iterations 2
smoothSolver:  Solving for p, Initial residual = 0.000381653, Final residual = 2.24468e-17, No Iterations 3
diagonal:  Solving for rho, Initial residual = 0, Final residual = 0, No Iterations 0
time step continuity errors : sum local = 1.78068e-16, global = 3.80867e-17, cumulative = 4.77098e-15
PIMPLE: Iteration 2
smoothSolver:  Solving for Ux, Initial residual = 0.000159161, Final residual = 2.15893e-17, No Iterations 1
smoothSolver:  Solving for e, Initial residual = 4.01059e-05, Final residual = 3.68374e-17, No Iterations 2
smoothSolver:  Solving for p, Initial residual = 9.07669e-06, Final residual = 8.69105e-18, No Iterations 3
diagonal:  Solving for rho, Initial residual = 0, Final residual = 0, No Iterations 0
time step continuity errors : sum local = 1.02389e-16, global = 3.9076e-17, cumulative = 4.81005e-15
ExecutionTime = 0.06 s  ClockTime = 0 s

Courant Number mean: 0.000539861 max: 0.0327118
Time = 0.00014

PIMPLE: Iteration 1
diagonal:  Solving for rho, Initial residual = 0, Final residual = 0, No Iterations 0
smoothSolver:  Solving for Ux, Initial residual = 0.0116693, Final residual = 1.04385e-17, No Iterations 1
smoothSolver:  Solving for e, Initial residual = 0.000810882, Final residual = 6.24175e-16, No Iterations 2
smoothSolver:  Solving for p, Initial residual = 0.000378837, Final residual = 3.33611e-17, No Iterations 3
diagonal:  Solving for rho, Initial residual = 0, Final residual = 0, No Iterations 0
time step continuity errors : sum local = 1.90928e-16, global = 2.37424e-17, cumulative = 4.83379e-15
PIMPLE: Iteration 2
smoothSolver:  Solving for Ux, Initial residual = 0.000144011, Final residual = 7.24209e-18, No Iterations 1
smoothSolver:  Solving for e, Initial residual = 4.36935e-05, Final residual = 6.30972e-17, No Iterations 2
smoothSolver:  Solving for p, Initial residual = 1.05874e-05, Final residual = 8.95943e-18, No Iterations 3
diagonal:  Solving for rho, Initial residual = 0, Final residual = 0, No Iterations 0
time step continuity errors : sum local = 1.04615e-16, global = 2.49789e-17, cumulative = 4.85877e-15
ExecutionTime = 0.07 s  ClockTime = 0 s

Courant Number mean: 0.000542842 max: 0.0314359
Time = 0.00015

PIMPLE: Iteration 1
diagonal:  Solving for rho, Initial residual = 0, Final residual = 0, No Iterations 0
smoothSolver:  Solving for Ux, Initial residual = 0.0109964, Final residual = 1.81375e-17, No Iterations 1
smoothSolver:  Solving for e, Initial residual = 0.00079604, Final residual = 2.70219e-17, No Iterations 3
smoothSolver:  Solving for p, Initial residual = 0.000374756, Final residual = 4.8508e-17, No Iterations 3
diagonal:  Solving for rho, Initial residual = 0, Final residual = 0, No Iterations 0
time step continuity errors : sum local = 2.02799e-16, global = -2.47316e-18, cumulative = 4.8563e-15
PIMPLE: Iteration 2
smoothSolver:  Solving for Ux, Initial residual = 0.000131155, Final residual = 5.84709e-18, No Iterations 1
smoothSolver:  Solving for e, Initial residual = 5.14773e-05, Final residual = 1.2183e-16, No Iterations 2
smoothSolver:  Solving for p, Initial residual = 1.14585e-05, Final residual = 1.28266e-17, No Iterations 3
diagonal:  Solving for rho, Initial residual = 0, Final residual = 0, No Iterations 0
time step continuity errors : sum local = 8.70553e-17, global = 1.97853e-17, cumulative = 4.87609e-15
ExecutionTime = 0.07 s  ClockTime = 0 s

Courant Number mean: 0.000546957 max: 0.0302501
Time = 0.00016

PIMPLE: Iteration 1
diagonal:  Solving for rho, Initial residual = 0, Final residual = 0, No Iterations 0
smoothSolver:  Solving for Ux, Initial residual = 0.0104079, Final residual = 1.28563e-17, No Iterations 1
smoothSolver:  Solving for e, Initial residual = 0.000778224, Final residual = 2.72226e-17, No Iterations 3
smoothSolver:  Solving for p, Initial residual = 0.000369753, Final residual = 6.71135e-17, No Iterations 3
diagonal:  Solving for rho, Initial residual = 0, Final residual = 0, No Iterations 0
time step continuity errors : sum local = 2.37176e-16, global = -4.67428e-17, cumulative = 4.82934e-15
PIMPLE: Iteration 2
smoothSolver:  Solving for Ux, Initial residual = 0.000119247, Final residual = 1.00286e-17, No Iterations 1
smoothSolver:  Solving for e, Initial residual = 5.49887e-05, Final residual = 2.18873e-16, No Iterations 2
smoothSolver:  Solving for p, Initial residual = 1.17716e-05, Final residual = 1.15701e-17, No Iterations 3
diagonal:  Solving for rho, Initial residual = 0, Final residual = 0, No Iterations 0
time step continuity errors : sum local = 1.03131e-16, global = 1.70648e-17, cumulative = 4.84641e-15
ExecutionTime = 0.07 s  ClockTime = 0 s

Courant Number mean: 0.000552058 max: 0.0291634
Time = 0.00017

PIMPLE: Iteration 1
diagonal:  Solving for rho, Initial residual = 0, Final residual = 0, No Iterations 0
smoothSolver:  Solving for Ux, Initial residual = 0.00988802, Final residual = 1.62389e-17, No Iterations 1
smoothSolver:  Solving for e, Initial residual = 0.000753701, Final residual = 3.16318e-17, No Iterations 3
smoothSolver:  Solving for p, Initial residual = 0.000363595, Final residual = 8.44164e-17, No Iterations 3
diagonal:  Solving for rho, Initial residual = 0, Final residual = 0, No Iterations 0
time step continuity errors : sum local = 2.64876e-16, global = -6.75173e-17, cumulative = 4.77889e-15
PIMPLE: Iteration 2
smoothSolver:  Solving for Ux, Initial residual = 0.000108397, Final residual = 3.32184e-18, No Iterations 1
smoothSolver:  Solving for e, Initial residual = 5.28135e-05, Final residual = 3.24397e-16, No Iterations 2
smoothSolver:  Solving for p, Initial residual = 1.13964e-05, Final residual = 1.2101e-17, No Iterations 3
diagonal:  Solving for rho, Initial residual = 0, Final residual = 0, No Iterations 0
time step continuity errors : sum local = 1.02636e-16, global = 2.3495e-17, cumulative = 4.80239e-15
ExecutionTime = 0.08 s  ClockTime = 0 s

Courant Number mean: 0.000558037 max: 0.028177
Time = 0.00018

PIMPLE: Iteration 1
diagonal:  Solving for rho, Initial residual = 0, Final residual = 0, No Iterations 0
smoothSolver:  Solving for Ux, Initial residual = 0.00942472, Final residual = 4.54564e-18, No Iterations 1
smoothSolver:  Solving for e, Initial residual = 0.000729154, Final residual = 2.54707e-17, No Iterations 3
smoothSolver:  Solving for p, Initial residual = 0.000357164, Final residual = 1.04453e-16, No Iterations 3
diagonal:  Solving for rho, Initial residual = 0, Final residual = 0, No Iterations 0
time step continuity errors : sum local = 3.09887e-16, global = -1.18959e-16, cumulative = 4.68343e-15
PIMPLE: Iteration 2
smoothSolver:  Solving for Ux, Initial residual = 9.85832e-05, Final residual = 1.51547e-17, No Iterations 1
smoothSolver:  Solving for e, Initial residual = 5.02358e-05, Final residual = 4.57501e-16, No Iterations 2
smoothSolver:  Solving for p, Initial residual = 1.09381e-05, Final residual = 1.48854e-17, No Iterations 3
diagonal:  Solving for rho, Initial residual = 0, Final residual = 0, No Iterations 0
time step continuity errors : sum local = 1.05851e-16, global = 3.01726e-17, cumulative = 4.7136e-15
ExecutionTime = 0.08 s  ClockTime = 0 s

Courant Number mean: 0.000564816 max: 0.0272853
Time = 0.00019

PIMPLE: Iteration 1
diagonal:  Solving for rho, Initial residual = 0, Final residual = 0, No Iterations 0
smoothSolver:  Solving for Ux, Initial residual = 0.0090088, Final residual = 6.06348e-18, No Iterations 1
smoothSolver:  Solving for e, Initial residual = 0.000704808, Final residual = 2.82889e-17, No Iterations 3
smoothSolver:  Solving for p, Initial residual = 0.000350569, Final residual = 1.1888e-16, No Iterations 3
diagonal:  Solving for rho, Initial residual = 0, Final residual = 0, No Iterations 0
time step continuity errors : sum local = 3.47727e-16, global = -1.38497e-16, cumulative = 4.5751e-15
PIMPLE: Iteration 2
smoothSolver:  Solving for Ux, Initial residual = 9.00342e-05, Final residual = 1.25206e-17, No Iterations 1
smoothSolver:  Solving for e, Initial residual = 4.77484e-05, Final residual = 6.22136e-16, No Iterations 2
smoothSolver:  Solving for p, Initial residual = 1.04613e-05, Final residual = 1.56261e-17, No Iterations 3
diagonal:  Solving for rho, Initial residual = 0, Final residual = 0, No Iterations 0
time step continuity errors : sum local = 1.02884e-16, global = 1.83014e-17, cumulative = 4.5934e-15
ExecutionTime = 0.08 s  ClockTime = 0 s

Courant Number mean: 0.000572369 max: 0.0264824
Time = 0.0002

PIMPLE: Iteration 1
diagonal:  Solving for rho, Initial residual = 0, Final residual = 0, No Iterations 0
smoothSolver:  Solving for Ux, Initial residual = 0.00863268, Final residual = 7.00304e-18, No Iterations 1
smoothSolver:  Solving for e, Initial residual = 0.000680799, Final residual = 3.72723e-17, No Iterations 3
smoothSolver:  Solving for p, Initial residual = 0.00034389, Final residual = 1.36285e-16, No Iterations 3
diagonal:  Solving for rho, Initial residual = 0, Final residual = 0, No Iterations 0
time step continuity errors : sum local = 3.83835e-16, global = -1.56304e-16, cumulative = 4.4371e-15
PIMPLE: Iteration 2
smoothSolver:  Solving for Ux, Initial residual = 8.26204e-05, Final residual = 8.68774e-18, No Iterations 1
smoothSolver:  Solving for e, Initial residual = 4.55103e-05, Final residual = 8.34332e-16, No Iterations 2
smoothSolver:  Solving for p, Initial residual = 9.98816e-06, Final residual = 1.56123e-17, No Iterations 3
diagonal:  Solving for rho, Initial residual = 0, Final residual = 0, No Iterations 0
time step continuity errors : sum local = 1.06593e-16, global = 2.69575e-17, cumulative = 4.46406e-15
ExecutionTime = 0.08 s  ClockTime = 0 s

Courant Number mean: 0.000580681 max: 0.0257623
Time = 0.00021

PIMPLE: Iteration 1
diagonal:  Solving for rho, Initial residual = 0, Final residual = 0, No Iterations 0
smoothSolver:  Solving for Ux, Initial residual = 0.00829029, Final residual = 9.51509e-18, No Iterations 1
smoothSolver:  Solving for e, Initial residual = 0.000657087, Final residual = 2.56065e-17, No Iterations 3
smoothSolver:  Solving for p, Initial residual = 0.000337188, Final residual = 1.43889e-16, No Iterations 3
diagonal:  Solving for rho, Initial residual = 0, Final residual = 0, No Iterations 0
time step continuity errors : sum local = 3.93233e-16, global = -1.60756e-16, cumulative = 4.3033e-15
PIMPLE: Iteration 2
smoothSolver:  Solving for Ux, Initial residual = 7.6107e-05, Final residual = 1.28327e-17, No Iterations 1
smoothSolver:  Solving for e, Initial residual = 4.35051e-05, Final residual = 2.86617e-17, No Iterations 3
smoothSolver:  Solving for p, Initial residual = 9.62478e-06, Final residual = 1.67843e-17, No Iterations 3
diagonal:  Solving for rho, Initial residual = 0, Final residual = 0, No Iterations 0
time step continuity errors : sum local = 1.12529e-16, global = 2.44843e-17, cumulative = 4.32779e-15
ExecutionTime = 0.09 s  ClockTime = 0 s

Courant Number mean: 0.000589733 max: 0.0251186
Time = 0.00022

PIMPLE: Iteration 1
diagonal:  Solving for rho, Initial residual = 0, Final residual = 0, No Iterations 0
smoothSolver:  Solving for Ux, Initial residual = 0.00797674, Final residual = 8.9927e-18, No Iterations 1
smoothSolver:  Solving for e, Initial residual = 0.000647398, Final residual = 2.78389e-17, No Iterations 3
smoothSolver:  Solving for p, Initial residual = 0.000330512, Final residual = 1.47702e-16, No Iterations 3
diagonal:  Solving for rho, Initial residual = 0, Final residual = 0, No Iterations 0
time step continuity errors : sum local = 3.88039e-16, global = -2.13434e-16, cumulative = 4.11435e-15
PIMPLE: Iteration 2
smoothSolver:  Solving for Ux, Initial residual = 7.02752e-05, Final residual = 1.17302e-17, No Iterations 1
smoothSolver:  Solving for e, Initial residual = 4.1708e-05, Final residual = 2.93728e-17, No Iterations 3
smoothSolver:  Solving for p, Initial residual = 8.12864e-06, Final residual = 1.46358e-17, No Iterations 3
diagonal:  Solving for rho, Initial residual = 0, Final residual = 0, No Iterations 0
time step continuity errors : sum local = 9.79372e-17, global = 1.97853e-18, cumulative = 4.11633e-15
ExecutionTime = 0.09 s  ClockTime = 0 s

Courant Number mean: 0.00060092 max: 0.0246427
Time = 0.00023

PIMPLE: Iteration 1
diagonal:  Solving for rho, Initial residual = 0, Final residual = 0, No Iterations 0
smoothSolver:  Solving for Ux, Initial residual = 0.00767567, Final residual = 1.49822e-17, No Iterations 1
smoothSolver:  Solving for e, Initial residual = 0.000657329, Final residual = 2.59529e-17, No Iterations 3
smoothSolver:  Solving for p, Initial residual = 0.000325974, Final residual = 1.50243e-16, No Iterations 3
diagonal:  Solving for rho, Initial residual = 0, Final residual = 0, No Iterations 0
time step continuity errors : sum local = 3.9348e-16, global = -1.87713e-16, cumulative = 3.92862e-15
PIMPLE: Iteration 2
smoothSolver:  Solving for Ux, Initial residual = 6.61877e-05, Final residual = 9.06096e-18, No Iterations 1
smoothSolver:  Solving for e, Initial residual = 4.00811e-05, Final residual = 2.70347e-17, No Iterations 3
smoothSolver:  Solving for p, Initial residual = 4.28539e-06, Final residual = 1.17539e-17, No Iterations 3
diagonal:  Solving for rho, Initial residual = 0, Final residual = 0, No Iterations 0
time step continuity errors : sum local = 1.07583e-16, global = 2.00326e-17, cumulative = 3.94865e-15
ExecutionTime = 0.09 s  ClockTime = 0 s

Courant Number mean: 0.000616643 max: 0.0244872
Time = 0.00024

PIMPLE: Iteration 1
diagonal:  Solving for rho, Initial residual = 0, Final residual = 0, No Iterations 0
smoothSolver:  Solving for Ux, Initial residual = 0.00736488, Final residual = 1.69675e-17, No Iterations 1
smoothSolver:  Solving for e, Initial residual = 0.0006664, Final residual = 2.76733e-17, No Iterations 3
smoothSolver:  Solving for p, Initial residual = 0.000328112, Final residual = 1.57335e-16, No Iterations 3
diagonal:  Solving for rho, Initial residual = 0, Final residual = 0, No Iterations 0
time step continuity errors : sum local = 4.05104e-16, global = -2.06262e-16, cumulative = 3.74239e-15
PIMPLE: Iteration 2
smoothSolver:  Solving for Ux, Initial residual = 7.22903e-05, Final residual = 1.91456e-17, No Iterations 1
smoothSolver:  Solving for e, Initial residual = 3.76286e-05, Final residual = 2.68514e-17, No Iterations 3
smoothSolver:  Solving for p, Initial residual = 4.04512e-06, Final residual = 1.37224e-17, No Iterations 3
diagonal:  Solving for rho, Initial residual = 0, Final residual = 0, No Iterations 0
time step continuity errors : sum local = 8.45821e-17, global = 2.22585e-17, cumulative = 3.76465e-15
ExecutionTime = 0.1 s  ClockTime = 0 s

Courant Number mean: 0.000633873 max: 0.0244292
Time = 0.00025

PIMPLE: Iteration 1
diagonal:  Solving for rho, Initial residual = 0, Final residual = 0, No Iterations 0
smoothSolver:  Solving for Ux, Initial residual = 0.00707102, Final residual = 1.17118e-17, No Iterations 1
smoothSolver:  Solving for e, Initial residual = 0.00067494, Final residual = 3.69301e-17, No Iterations 3
smoothSolver:  Solving for p, Initial residual = 0.000330782, Final residual = 1.68538e-16, No Iterations 3
diagonal:  Solving for rho, Initial residual = 0, Final residual = 0, No Iterations 0
time step continuity errors : sum local = 4.16233e-16, global = -2.16896e-16, cumulative = 3.54775e-15
PIMPLE: Iteration 2
smoothSolver:  Solving for Ux, Initial residual = 7.07446e-05, Final residual = 1.74164e-17, No Iterations 1
smoothSolver:  Solving for e, Initial residual = 3.81615e-05, Final residual = 3.22159e-17, No Iterations 3
smoothSolver:  Solving for p, Initial residual = 4.13741e-06, Final residual = 1.14682e-17, No Iterations 3
diagonal:  Solving for rho, Initial residual = 0, Final residual = 0, No Iterations 0
time step continuity errors : sum local = 1.07335e-16, global = 3.06672e-17, cumulative = 3.57842e-15
ExecutionTime = 0.1 s  ClockTime = 0 s

Courant Number mean: 0.000651687 max: 0.0244026
Time = 0.00026

PIMPLE: Iteration 1
diagonal:  Solving for rho, Initial residual = 0, Final residual = 0, No Iterations 0
smoothSolver:  Solving for Ux, Initial residual = 0.00679892, Final residual = 8.69523e-18, No Iterations 1
smoothSolver:  Solving for e, Initial residual = 0.000683114, Final residual = 2.44714e-17, No Iterations 3
smoothSolver:  Solving for p, Initial residual = 0.000333391, Final residual = 1.76388e-16, No Iterations 3
diagonal:  Solving for rho, Initial residual = 0, Final residual = 0, No Iterations 0
time step continuity errors : sum local = 4.26868e-16, global = -2.45832e-16, cumulative = 3.33259e-15
PIMPLE: Iteration 2
smoothSolver:  Solving for Ux, Initial residual = 6.6945e-05, Final residual = 1.75658e-17, No Iterations 1
smoothSolver:  Solving for e, Initial residual = 3.94867e-05, Final residual = 2.41894e-17, No Iterations 3
smoothSolver:  Solving for p, Initial residual = 4.3154e-06, Final residual = 1.31132e-17, No Iterations 3
diagonal:  Solving for rho, Initial residual = 0, Final residual = 0, No Iterations 0
time step continuity errors : sum local = 9.32382e-17, global = 1.50863e-17, cumulative = 3.34767e-15
ExecutionTime = 0.1 s  ClockTime = 0 s

Courant Number mean: 0.00066977 max: 0.0243863
Time = 0.00027

PIMPLE: Iteration 1
diagonal:  Solving for rho, Initial residual = 0, Final residual = 0, No Iterations 0
smoothSolver:  Solving for Ux, Initial residual = 0.00654824, Final residual = 2.35597e-17, No Iterations 1
smoothSolver:  Solving for e, Initial residual = 0.000690969, Final residual = 2.65577e-17, No Iterations 3
smoothSolver:  Solving for p, Initial residual = 0.000335738, Final residual = 1.88681e-16, No Iterations 3
diagonal:  Solving for rho, Initial residual = 0, Final residual = 0, No Iterations 0
time step continuity errors : sum local = 4.41954e-16, global = -2.63392e-16, cumulative = 3.08428e-15
PIMPLE: Iteration 2
smoothSolver:  Solving for Ux, Initial residual = 6.26114e-05, Final residual = 2.11731e-17, No Iterations 1
smoothSolver:  Solving for e, Initial residual = 4.08746e-05, Final residual = 2.55027e-17, No Iterations 3
smoothSolver:  Solving for p, Initial residual = 4.48683e-06, Final residual = 1.40185e-17, No Iterations 3
diagonal:  Solving for rho, Initial residual = 0, Final residual = 0, No Iterations 0
time step continuity errors : sum local = 9.71953e-17, global = 2.72048e-18, cumulative = 3.087e-15
ExecutionTime = 0.1 s  ClockTime = 0 s

Courant Number mean: 0.000688001 max: 0.0243742
Time = 0.00028

PIMPLE: Iteration 1
diagonal:  Solving for rho, Initial residual = 0, Final residual = 0, No Iterations 0
smoothSolver:  Solving for Ux, Initial residual = 0.00631722, Final residual = 1.90399e-17, No Iterations 1
smoothSolver:  Solving for e, Initial residual = 0.000698549, Final residual = 2.9726e-17, No Iterations 3
smoothSolver:  Solving for p, Initial residual = 0.000337751, Final residual = 1.94916e-16, No Iterations 3
diagonal:  Solving for rho, Initial residual = 0, Final residual = 0, No Iterations 0
time step continuity errors : sum local = 4.55309e-16, global = -2.71306e-16, cumulative = 2.81569e-15
PIMPLE: Iteration 2
smoothSolver:  Solving for Ux, Initial residual = 5.83126e-05, Final residual = 1.17862e-17, No Iterations 1
smoothSolver:  Solving for e, Initial residual = 4.20951e-05, Final residual = 3.04325e-17, No Iterations 3
smoothSolver:  Solving for p, Initial residual = 4.63942e-06, Final residual = 1.32395e-17, No Iterations 3
diagonal:  Solving for rho, Initial residual = 0, Final residual = 0, No Iterations 0
time step continuity errors : sum local = 9.71953e-17, global = 2.20111e-17, cumulative = 2.83771e-15
ExecutionTime = 0.11 s  ClockTime = 0 s

Courant Number mean: 0.000706336 max: 0.0243651
Time = 0.00029

PIMPLE: Iteration 1
diagonal:  Solving for rho, Initial residual = 0, Final residual = 0, No Iterations 0
smoothSolver:  Solving for Ux, Initial residual = 0.0061039, Final residual = 8.30586e-18, No Iterations 1
smoothSolver:  Solving for e, Initial residual = 0.000705895, Final residual = 3.06586e-17, No Iterations 3
smoothSolver:  Solving for p, Initial residual = 0.000339423, Final residual = 2.03795e-16, No Iterations 3
diagonal:  Solving for rho, Initial residual = 0, Final residual = 0, No Iterations 0
time step continuity errors : sum local = 4.86224e-16, global = -2.73532e-16, cumulative = 2.56417e-15
PIMPLE: Iteration 2
smoothSolver:  Solving for Ux, Initial residual = 5.42367e-05, Final residual = 9.55914e-18, No Iterations 1
smoothSolver:  Solving for e, Initial residual = 4.31163e-05, Final residual = 3.58917e-17, No Iterations 3
smoothSolver:  Solving for p, Initial residual = 4.76959e-06, Final residual = 8.89354e-18, No Iterations 3
diagonal:  Solving for rho, Initial residual = 0, Final residual = 0, No Iterations 0
time step continuity errors : sum local = 9.86792e-17, global = 2.39897e-17, cumulative = 2.58816e-15
ExecutionTime = 0.11 s  ClockTime = 0 s

Courant Number mean: 0.000724759 max: 0.0243596
Time = 0.0003

PIMPLE: Iteration 1
diagonal:  Solving for rho, Initial residual = 0, Final residual = 0, No Iterations 0
smoothSolver:  Solving for Ux, Initial residual = 0.00590394, Final residual = 1.20984e-17, No Iterations 1
smoothSolver:  Solving for e, Initial residual = 0.000713042, Final residual = 3.12474e-17, No Iterations 3
smoothSolver:  Solving for p, Initial residual = 0.000340763, Final residual = 2.10259e-16, No Iterations 3
diagonal:  Solving for rho, Initial residual = 0, Final residual = 0, No Iterations 0
time step continuity errors : sum local = 4.91665e-16, global = -3.00242e-16, cumulative = 2.28792e-15
PIMPLE: Iteration 2
smoothSolver:  Solving for Ux, Initial residual = 5.04279e-05, Final residual = 1.69681e-17, No Iterations 1
smoothSolver:  Solving for e, Initial residual = 4.3964e-05, Final residual = 3.00226e-17, No Iterations 3
smoothSolver:  Solving for p, Initial residual = 4.88e-06, Final residual = 1.35856e-17, No Iterations 3
diagonal:  Solving for rho, Initial residual = 0, Final residual = 0, No Iterations 0
time step continuity errors : sum local = 9.69479e-17, global = 9.89265e-19, cumulative = 2.28891e-15
ExecutionTime = 0.11 s  ClockTime = 0 s

Courant Number mean: 0.000743272 max: 0.0243586
Time = 0.00031

PIMPLE: Iteration 1
diagonal:  Solving for rho, Initial residual = 0, Final residual = 0, No Iterations 0
smoothSolver:  Solving for Ux, Initial residual = 0.00571545, Final residual = 1.40742e-17, No Iterations 1
smoothSolver:  Solving for e, Initial residual = 0.000720017, Final residual = 3.56838e-17, No Iterations 3
smoothSolver:  Solving for p, Initial residual = 0.000341798, Final residual = 2.17704e-16, No Iterations 3
diagonal:  Solving for rho, Initial residual = 0, Final residual = 0, No Iterations 0
time step continuity errors : sum local = 5.06998e-16, global = -3.16565e-16, cumulative = 1.97235e-15
PIMPLE: Iteration 2
smoothSolver:  Solving for Ux, Initial residual = 4.68406e-05, Final residual = 1.2816e-17, No Iterations 1
smoothSolver:  Solving for e, Initial residual = 4.46777e-05, Final residual = 2.87252e-17, No Iterations 3
smoothSolver:  Solving for p, Initial residual = 4.97665e-06, Final residual = 1.34218e-17, No Iterations 3
diagonal:  Solving for rho, Initial residual = 0, Final residual = 0, No Iterations 0
time step continuity errors : sum local = 1.00905e-16, global = 3.16565e-17, cumulative = 2.004e-15
ExecutionTime = 0.12 s  ClockTime = 0 s

Courant Number mean: 0.000762206 max: 0.0243636
Time = 0.00032

PIMPLE: Iteration 1
diagonal:  Solving for rho, Initial residual = 0, Final residual = 0, No Iterations 0
smoothSolver:  Solving for Ux, Initial residual = 0.00553401, Final residual = 9.28031e-18, No Iterations 1
smoothSolver:  Solving for e, Initial residual = 0.000726612, Final residual = 2.6385e-17, No Iterations 3
smoothSolver:  Solving for p, Initial residual = 0.000342512, Final residual = 2.29814e-16, No Iterations 3
diagonal:  Solving for rho, Initial residual = 0, Final residual = 0, No Iterations 0
time step continuity errors : sum local = 5.1417e-16, global = -3.33135e-16, cumulative = 1.67087e-15
PIMPLE: Iteration 2
smoothSolver:  Solving for Ux, Initial residual = 4.46066e-05, Final residual = 9.14922e-18, No Iterations 1
smoothSolver:  Solving for e, Initial residual = 4.5419e-05, Final residual = 3.07306e-17, No Iterations 3
smoothSolver:  Solving for p, Initial residual = 5.08384e-06, Final residual = 1.67155e-17, No Iterations 3
diagonal:  Solving for rho, Initial residual = 0, Final residual = 0, No Iterations 0
time step continuity errors : sum local = 1.1154e-16, global = 1.9538e-17, cumulative = 1.69041e-15
ExecutionTime = 0.12 s  ClockTime = 0 s

Courant Number mean: 0.000781435 max: 0.0243757
Time = 0.00033

PIMPLE: Iteration 1
diagonal:  Solving for rho, Initial residual = 0, Final residual = 0, No Iterations 0
smoothSolver:  Solving for Ux, Initial residual = 0.0053627, Final residual = 7.05247e-18, No Iterations 1
smoothSolver:  Solving for e, Initial residual = 0.000732974, Final residual = 2.61612e-17, No Iterations 3
smoothSolver:  Solving for p, Initial residual = 0.000342932, Final residual = 2.36283e-16, No Iterations 3
diagonal:  Solving for rho, Initial residual = 0, Final residual = 0, No Iterations 0
time step continuity errors : sum local = 5.4459e-16, global = -3.46243e-16, cumulative = 1.34416e-15
PIMPLE: Iteration 2
smoothSolver:  Solving for Ux, Initial residual = 4.22432e-05, Final residual = 1.16295e-17, No Iterations 1
smoothSolver:  Solving for e, Initial residual = 4.62429e-05, Final residual = 4.3996e-17, No Iterations 3
smoothSolver:  Solving for p, Initial residual = 5.23063e-06, Final residual = 1.49787e-17, No Iterations 3
diagonal:  Solving for rho, Initial residual = 0, Final residual = 0, No Iterations 0
time step continuity errors : sum local = 1.01894e-16, global = 3.80867e-17, cumulative = 1.38225e-15
ExecutionTime = 0.12 s  ClockTime = 0 s

Courant Number mean: 0.000800891 max: 0.024396
Time = 0.00034

PIMPLE: Iteration 1
diagonal:  Solving for rho, Initial residual = 0, Final residual = 0, No Iterations 0
smoothSolver:  Solving for Ux, Initial residual = 0.00520152, Final residual = 1.74411e-17, No Iterations 1
smoothSolver:  Solving for e, Initial residual = 0.000739679, Final residual = 1.47234e-16, No Iterations 3
smoothSolver:  Solving for p, Initial residual = 0.00034309, Final residual = 2.47052e-16, No Iterations 3
diagonal:  Solving for rho, Initial residual = 0, Final residual = 0, No Iterations 0
time step continuity errors : sum local = 5.52999e-16, global = -3.62566e-16, cumulative = 1.01968e-15
PIMPLE: Iteration 2
smoothSolver:  Solving for Ux, Initial residual = 3.98643e-05, Final residual = 8.39271e-18, No Iterations 1
smoothSolver:  Solving for e, Initial residual = 4.79935e-05, Final residual = 5.2605e-17, No Iterations 3
smoothSolver:  Solving for p, Initial residual = 5.42076e-06, Final residual = 1.22101e-17, No Iterations 3
diagonal:  Solving for rho, Initial residual = 0, Final residual = 0, No Iterations 0
time step continuity errors : sum local = 1.1154e-16, global = 3.04199e-17, cumulative = 1.0501e-15
ExecutionTime = 0.12 s  ClockTime = 0 s

Courant Number mean: 0.000820531 max: 0.0244249
Time = 0.00035

PIMPLE: Iteration 1
diagonal:  Solving for rho, Initial residual = 0, Final residual = 0, No Iterations 0
smoothSolver:  Solving for Ux, Initial residual = 0.00504974, Final residual = 1.14844e-17, No Iterations 1
smoothSolver:  Solving for e, Initial residual = 0.000749107, Final residual = 1.57218e-16, No Iterations 3
smoothSolver:  Solving for p, Initial residual = 0.000342998, Final residual = 2.61309e-16, No Iterations 3
diagonal:  Solving for rho, Initial residual = 0, Final residual = 0, No Iterations 0
time step continuity errors : sum local = 5.85892e-16, global = -3.78641e-16, cumulative = 6.71463e-16
PIMPLE: Iteration 2
smoothSolver:  Solving for Ux, Initial residual = 3.75599e-05, Final residual = 1.44503e-17, No Iterations 1
smoothSolver:  Solving for e, Initial residual = 4.98664e-05, Final residual = 5.40396e-17, No Iterations 3
smoothSolver:  Solving for p, Initial residual = 5.63348e-06, Final residual = 1.71706e-17, No Iterations 3
diagonal:  Solving for rho, Initial residual = 0, Final residual = 0, No Iterations 0
time step continuity errors : sum local = 9.24963e-17, global = 1.63229e-17, cumulative = 6.87786e-16
ExecutionTime = 0.13 s  ClockTime = 0 s

Courant Number mean: 0.000840332 max: 0.0244629
Time = 0.00036

PIMPLE: Iteration 1
diagonal:  Solving for rho, Initial residual = 0, Final residual = 0, No Iterations 0
smoothSolver:  Solving for Ux, Initial residual = 0.00490667, Final residual = 1.64789e-17, No Iterations 1
smoothSolver:  Solving for e, Initial residual = 0.000758984, Final residual = 1.58988e-16, No Iterations 3
smoothSolver:  Solving for p, Initial residual = 0.000342687, Final residual = 2.7682e-16, No Iterations 3
diagonal:  Solving for rho, Initial residual = 0, Final residual = 0, No Iterations 0
time step continuity errors : sum local = 6.09634e-16, global = -4.01889e-16, cumulative = 2.85898e-16
PIMPLE: Iteration 2
smoothSolver:  Solving for Ux, Initial residual = 3.53701e-05, Final residual = 9.80009e-18, No Iterations 1
smoothSolver:  Solving for e, Initial residual = 5.11185e-05, Final residual = 6.25126e-17, No Iterations 3
smoothSolver:  Solving for p, Initial residual = 5.77744e-06, Final residual = 1.60477e-17, No Iterations 3
diagonal:  Solving for rho, Initial residual = 0, Final residual = 0, No Iterations 0
time step continuity errors : sum local = 1.0783e-16, global = -1.38497e-17, cumulative = 2.72048e-16
ExecutionTime = 0.13 s  ClockTime = 0 s

Courant Number mean: 0.000860278 max: 0.0245103
Time = 0.00037

PIMPLE: Iteration 1
diagonal:  Solving for rho, Initial residual = 0, Final residual = 0, No Iterations 0
smoothSolver:  Solving for Ux, Initial residual = 0.00477164, Final residual = 1.23726e-17, No Iterations 1
smoothSolver:  Solving for e, Initial residual = 0.000770112, Final residual = 1.74318e-16, No Iterations 3
smoothSolver:  Solving for p, Initial residual = 0.00034217, Final residual = 2.92211e-16, No Iterations 3
diagonal:  Solving for rho, Initial residual = 0, Final residual = 0, No Iterations 0
time step continuity errors : sum local = 6.25957e-16, global = -4.48879e-16, cumulative = -1.76831e-16
PIMPLE: Iteration 2
smoothSolver:  Solving for Ux, Initial residual = 3.5299e-05, Final residual = 1.48479e-17, No Iterations 1
smoothSolver:  Solving for e, Initial residual = 5.17918e-05, Final residual = 6.18005e-17, No Iterations 3
smoothSolver:  Solving for p, Initial residual = 5.85726e-06, Final residual = 1.57791e-17, No Iterations 3
diagonal:  Solving for rho, Initial residual = 0, Final residual = 0, No Iterations 0
time step continuity errors : sum local = 1.0041e-16, global = 2.22585e-17, cumulative = -1.54573e-16
ExecutionTime = 0.13 s  ClockTime = 0 s

Courant Number mean: 0.000880362 max: 0.024682
Time = 0.00038

PIMPLE: Iteration 1
diagonal:  Solving for rho, Initial residual = 0, Final residual = 0, No Iterations 0
smoothSolver:  Solving for Ux, Initial residual = 0.0046867, Final residual = 8.6372e-18, No Iterations 1
smoothSolver:  Solving for e, Initial residual = 0.000785767, Final residual = 1.96838e-16, No Iterations 3
smoothSolver:  Solving for p, Initial residual = 0.000341445, Final residual = 3.16446e-16, No Iterations 3
diagonal:  Solving for rho, Initial residual = 0, Final residual = 0, No Iterations 0
time step continuity errors : sum local = 6.68001e-16, global = -4.90923e-16, cumulative = -6.45495e-16
PIMPLE: Iteration 2
smoothSolver:  Solving for Ux, Initial residual = 3.59865e-05, Final residual = 7.0842e-18, No Iterations 1
smoothSolver:  Solving for e, Initial residual = 5.23495e-05, Final residual = 6.65164e-17, No Iterations 3
smoothSolver:  Solving for p, Initial residual = 5.92272e-06, Final residual = 1.95227e-17, No Iterations 3
diagonal:  Solving for rho, Initial residual = 0, Final residual = 0, No Iterations 0
time step continuity errors : sum local = 1.12776e-16, global = 6.92485e-18, cumulative = -6.3857e-16
ExecutionTime = 0.13 s  ClockTime = 0 s

Courant Number mean: 0.000900579 max: 0.0251345
Time = 0.00039

PIMPLE: Iteration 1
diagonal:  Solving for rho, Initial residual = 0, Final residual = 0, No Iterations 0
smoothSolver:  Solving for Ux, Initial residual = 0.00461447, Final residual = 6.18351e-18, No Iterations 1
smoothSolver:  Solving for e, Initial residual = 0.000801395, Final residual = 2.22345e-16, No Iterations 3
smoothSolver:  Solving for p, Initial residual = 0.000340545, Final residual = 3.42821e-16, No Iterations 3
diagonal:  Solving for rho, Initial residual = 0, Final residual = 0, No Iterations 0
time step continuity errors : sum local = 7.15238e-16, global = -5.04525e-16, cumulative = -1.1431e-15
PIMPLE: Iteration 2
smoothSolver:  Solving for Ux, Initial residual = 3.76071e-05, Final residual = 1.38358e-17, No Iterations 1
smoothSolver:  Solving for e, Initial residual = 5.27417e-05, Final residual = 6.84032e-17, No Iterations 3
smoothSolver:  Solving for p, Initial residual = 5.97146e-06, Final residual = 2.06933e-17, No Iterations 3
diagonal:  Solving for rho, Initial residual = 0, Final residual = 0, No Iterations 0
time step continuity errors : sum local = 1.13023e-16, global = 3.63555e-17, cumulative = -1.10674e-15
ExecutionTime = 0.14 s  ClockTime = 0 s

Courant Number mean: 0.000920926 max: 0.0255644
Time = 0.0004

PIMPLE: Iteration 1
diagonal:  Solving for rho, Initial residual = 0, Final residual = 0, No Iterations 0
smoothSolver:  Solving for Ux, Initial residual = 0.0045446, Final residual = 5.9611e-18, No Iterations 1
smoothSolver:  Solving for e, Initial residual = 0.000816928, Final residual = 2.51612e-16, No Iterations 3
smoothSolver:  Solving for p, Initial residual = 0.00033948, Final residual = 3.72146e-16, No Iterations 3
diagonal:  Solving for rho, Initial residual = 0, Final residual = 0, No Iterations 0
time step continuity errors : sum local = 7.71132e-16, global = -5.70806e-16, cumulative = -1.67755e-15
PIMPLE: Iteration 2
smoothSolver:  Solving for Ux, Initial residual = 3.90404e-05, Final residual = 1.05075e-17, No Iterations 1
smoothSolver:  Solving for e, Initial residual = 5.29977e-05, Final residual = 8.12312e-17, No Iterations 3
smoothSolver:  Solving for p, Initial residual = 6.0046e-06, Final residual = 2.01981e-17, No Iterations 3
diagonal:  Solving for rho, Initial residual = 0, Final residual = 0, No Iterations 0
time step continuity errors : sum local = 1.21185e-16, global = 1.4839e-17, cumulative = -1.66271e-15
ExecutionTime = 0.14 s  ClockTime = 0 s

Courant Number mean: 0.000941403 max: 0.0259719
Time = 0.00041

PIMPLE: Iteration 1
diagonal:  Solving for rho, Initial residual = 0, Final residual = 0, No Iterations 0
smoothSolver:  Solving for Ux, Initial residual = 0.00447705, Final residual = 1.71205e-17, No Iterations 1
smoothSolver:  Solving for e, Initial residual = 0.000832458, Final residual = 2.9017e-16, No Iterations 3
smoothSolver:  Solving for p, Initial residual = 0.000338258, Final residual = 4.09053e-16, No Iterations 3
diagonal:  Solving for rho, Initial residual = 0, Final residual = 0, No Iterations 0
time step continuity errors : sum local = 8.31724e-16, global = -6.21506e-16, cumulative = -2.28421e-15
PIMPLE: Iteration 2
smoothSolver:  Solving for Ux, Initial residual = 4.02608e-05, Final residual = 3.12965e-17, No Iterations 1
smoothSolver:  Solving for e, Initial residual = 5.31253e-05, Final residual = 7.88732e-17, No Iterations 3
smoothSolver:  Solving for p, Initial residual = 6.02333e-06, Final residual = 2.01662e-17, No Iterations 3
diagonal:  Solving for rho, Initial residual = 0, Final residual = 0, No Iterations 0
time step continuity errors : sum local = 1.04615e-16, global = 7.6668e-18, cumulative = -2.27655e-15
ExecutionTime = 0.14 s  ClockTime = 0 s

Courant Number mean: 0.000962015 max: 0.0263575
Time = 0.00042

PIMPLE: Iteration 1
diagonal:  Solving for rho, Initial residual = 0, Final residual = 0, No Iterations 0
smoothSolver:  Solving for Ux, Initial residual = 0.00441177, Final residual = 1.01463e-17, No Iterations 1
smoothSolver:  Solving for e, Initial residual = 0.000847917, Final residual = 3.30703e-16, No Iterations 3
smoothSolver:  Solving for p, Initial residual = 0.000336889, Final residual = 4.50036e-16, No Iterations 3
diagonal:  Solving for rho, Initial residual = 0, Final residual = 0, No Iterations 0
time step continuity errors : sum local = 9.09876e-16, global = -7.04604e-16, cumulative = -2.98115e-15
PIMPLE: Iteration 2
smoothSolver:  Solving for Ux, Initial residual = 4.12814e-05, Final residual = 1.2932e-17, No Iterations 1
smoothSolver:  Solving for e, Initial residual = 5.31346e-05, Final residual = 8.85879e-17, No Iterations 3
smoothSolver:  Solving for p, Initial residual = 6.02909e-06, Final residual = 1.96618e-17, No Iterations 3
diagonal:  Solving for rho, Initial residual = 0, Final residual = 0, No Iterations 0
time step continuity errors : sum local = 1.09314e-16, global = 2.07746e-17, cumulative = -2.96037e-15
ExecutionTime = 0.15 s  ClockTime = 0 s

Courant Number mean: 0.000982774 max: 0.0267221
Time = 0.00043

PIMPLE: Iteration 1
diagonal:  Solving for rho, Initial residual = 0, Final residual = 0, No Iterations 0
smoothSolver:  Solving for Ux, Initial residual = 0.00434866, Final residual = 8.89212e-18, No Iterations 1
smoothSolver:  Solving for e, Initial residual = 0.000863243, Final residual = 3.80039e-16, No Iterations 3
smoothSolver:  Solving for p, Initial residual = 0.000335381, Final residual = 4.9791e-16, No Iterations 3
diagonal:  Solving for rho, Initial residual = 0, Final residual = 0, No Iterations 0
time step continuity errors : sum local = 9.78136e-16, global = -7.83745e-16, cumulative = -3.74412e-15
PIMPLE: Iteration 2
smoothSolver:  Solving for Ux, Initial residual = 4.21163e-05, Final residual = 1.23309e-17, No Iterations 1
smoothSolver:  Solving for e, Initial residual = 5.30393e-05, Final residual = 8.51782e-17, No Iterations 3
smoothSolver:  Solving for p, Initial residual = 6.02691e-06, Final residual = 2.19687e-17, No Iterations 3
diagonal:  Solving for rho, Initial residual = 0, Final residual = 0, No Iterations 0
time step continuity errors : sum local = 1.27368e-16, global = 1.26131e-17, cumulative = -3.73151e-15
ExecutionTime = 0.15 s  ClockTime = 0 s

Courant Number mean: 0.00100369 max: 0.0270667
Time = 0.00044

PIMPLE: Iteration 1
diagonal:  Solving for rho, Initial residual = 0, Final residual = 0, No Iterations 0
smoothSolver:  Solving for Ux, Initial residual = 0.00428765, Final residual = 1.2132e-17, No Iterations 1
smoothSolver:  Solving for e, Initial residual = 0.000878385, Final residual = 4.3007e-16, No Iterations 3
smoothSolver:  Solving for p, Initial residual = 0.000333747, Final residual = 5.48679e-16, No Iterations 3
diagonal:  Solving for rho, Initial residual = 0, Final residual = 0, No Iterations 0
time step continuity errors : sum local = 1.07236e-15, global = -8.74015e-16, cumulative = -4.60552e-15
PIMPLE: Iteration 2
smoothSolver:  Solving for Ux, Initial residual = 4.2782e-05, Final residual = 1.42238e-17, No Iterations 1
smoothSolver:  Solving for e, Initial residual = 5.28561e-05, Final residual = 9.77671e-17, No Iterations 3
smoothSolver:  Solving for p, Initial residual = 6.02811e-06, Final residual = 2.41009e-17, No Iterations 3
diagonal:  Solving for rho, Initial residual = 0, Final residual = 0, No Iterations 0
time step continuity errors : sum local = 1.3182e-16, global = -1.85487e-17, cumulative = -4.62407e-15
ExecutionTime = 0.15 s  ClockTime = 0 s

Courant Number mean: 0.0010248 max: 0.0273928
Time = 0.00045

PIMPLE: Iteration 1
diagonal:  Solving for rho, Initial residual = 0, Final residual = 0, No Iterations 0
smoothSolver:  Solving for Ux, Initial residual = 0.00422862, Final residual = 1.1552e-17, No Iterations 1
smoothSolver:  Solving for e, Initial residual = 0.000893313, Final residual = 4.76994e-16, No Iterations 3
smoothSolver:  Solving for p, Initial residual = 0.000332007, Final residual = 6.08704e-16, No Iterations 3
diagonal:  Solving for rho, Initial residual = 0, Final residual = 0, No Iterations 0
time step continuity errors : sum local = 1.17772e-15, global = -1.01251e-15, cumulative = -5.63658e-15
PIMPLE: Iteration 2
smoothSolver:  Solving for Ux, Initial residual = 4.32286e-05, Final residual = 1.36844e-17, No Iterations 1
smoothSolver:  Solving for e, Initial residual = 5.24029e-05, Final residual = 9.23362e-17, No Iterations 3
smoothSolver:  Solving for p, Initial residual = 6.01222e-06, Final residual = 2.41134e-17, No Iterations 3
diagonal:  Solving for rho, Initial residual = 0, Final residual = 0, No Iterations 0
time step continuity errors : sum local = 1.36766e-16, global = -1.73121e-18, cumulative = -5.63831e-15
ExecutionTime = 0.16 s  ClockTime = 0 s

Courant Number mean: 0.00104603 max: 0.0276977
Time = 0.00046

PIMPLE: Iteration 1
diagonal:  Solving for rho, Initial residual = 0, Final residual = 0, No Iterations 0
smoothSolver:  Solving for Ux, Initial residual = 0.0041715, Final residual = 8.91027e-18, No Iterations 1
smoothSolver:  Solving for e, Initial residual = 0.00090781, Final residual = 5.39641e-16, No Iterations 3
smoothSolver:  Solving for p, Initial residual = 0.000330127, Final residual = 6.96406e-16, No Iterations 3
diagonal:  Solving for rho, Initial residual = 0, Final residual = 0, No Iterations 0
time step continuity errors : sum local = 1.32957e-15, global = -1.07632e-15, cumulative = -6.71463e-15
PIMPLE: Iteration 2
smoothSolver:  Solving for Ux, Initial residual = 4.33445e-05, Final residual = 1.90525e-17, No Iterations 1
smoothSolver:  Solving for e, Initial residual = 5.14016e-05, Final residual = 1.00377e-16, No Iterations 3
smoothSolver:  Solving for p, Initial residual = 5.98562e-06, Final residual = 2.34044e-17, No Iterations 3
diagonal:  Solving for rho, Initial residual = 0, Final residual = 0, No Iterations 0
time step continuity errors : sum local = 1.24153e-16, global = 2.22585e-17, cumulative = -6.69238e-15
ExecutionTime = 0.16 s  ClockTime = 0 s

Courant Number mean: 0.00106725 max: 0.0279728
Time = 0.00047

PIMPLE: Iteration 1
diagonal:  Solving for rho, Initial residual = 0, Final residual = 0, No Iterations 0
smoothSolver:  Solving for Ux, Initial residual = 0.00411626, Final residual = 1.4462e-17, No Iterations 1
smoothSolver:  Solving for e, Initial residual = 0.00092138, Final residual = 5.93535e-16, No Iterations 3
smoothSolver:  Solving for p, Initial residual = 0.000337502, Final residual = 7.82669e-16, No Iterations 3
diagonal:  Solving for rho, Initial residual = 0, Final residual = 0, No Iterations 0
time step continuity errors : sum local = 1.46337e-15, global = -1.19528e-15, cumulative = -7.88766e-15
PIMPLE: Iteration 2
smoothSolver:  Solving for Ux, Initial residual = 4.31298e-05, Final residual = 1.36267e-17, No Iterations 1
smoothSolver:  Solving for e, Initial residual = 4.99149e-05, Final residual = 9.27433e-17, No Iterations 3
smoothSolver:  Solving for p, Initial residual = 5.89446e-06, Final residual = 2.19982e-17, No Iterations 3
diagonal:  Solving for rho, Initial residual = 0, Final residual = 0, No Iterations 0
time step continuity errors : sum local = 1.09066e-16, global = 1.06346e-17, cumulative = -7.87702e-15
ExecutionTime = 0.16 s  ClockTime = 0 s

Courant Number mean: 0.00108833 max: 0.0282122
Time = 0.00048

PIMPLE: Iteration 1
diagonal:  Solving for rho, Initial residual = 0, Final residual = 0, No Iterations 0
smoothSolver:  Solving for Ux, Initial residual = 0.00406287, Final residual = 1.44011e-17, No Iterations 1
smoothSolver:  Solving for e, Initial residual = 0.000933596, Final residual = 6.40727e-16, No Iterations 3
smoothSolver:  Solving for p, Initial residual = 0.000344385, Final residual = 8.68608e-16, No Iterations 3
diagonal:  Solving for rho, Initial residual = 0, Final residual = 0, No Iterations 0
time step continuity errors : sum local = 1.62981e-15, global = -1.31473e-15, cumulative = -9.19175e-15
PIMPLE: Iteration 2
smoothSolver:  Solving for Ux, Initial residual = 4.26171e-05, Final residual = 1.08354e-17, No Iterations 1
smoothSolver:  Solving for e, Initial residual = 4.80459e-05, Final residual = 7.98925e-17, No Iterations 3
smoothSolver:  Solving for p, Initial residual = 5.7486e-06, Final residual = 2.14388e-17, No Iterations 3
diagonal:  Solving for rho, Initial residual = 0, Final residual = 0, No Iterations 0
time step continuity errors : sum local = 1.20938e-16, global = -1.4097e-17, cumulative = -9.20585e-15
ExecutionTime = 0.17 s  ClockTime = 0 s

Courant Number mean: 0.00110918 max: 0.0284134
Time = 0.00049

PIMPLE: Iteration 1
diagonal:  Solving for rho, Initial residual = 0, Final residual = 0, No Iterations 0
smoothSolver:  Solving for Ux, Initial residual = 0.00401123, Final residual = 1.19946e-17, No Iterations 1
smoothSolver:  Solving for e, Initial residual = 0.000944137, Final residual = 6.78905e-16, No Iterations 3
smoothSolver:  Solving for p, Initial residual = 0.000350664, Final residual = 9.35906e-16, No Iterations 3
diagonal:  Solving for rho, Initial residual = 0, Final residual = 0, No Iterations 0
time step continuity errors : sum local = 1.74457e-15, global = -1.36321e-15, cumulative = -1.05691e-14
PIMPLE: Iteration 2
smoothSolver:  Solving for Ux, Initial residual = 4.18574e-05, Final residual = 8.6253e-18, No Iterations 1
smoothSolver:  Solving for e, Initial residual = 4.62768e-05, Final residual = 6.95067e-17, No Iterations 3
smoothSolver:  Solving for p, Initial residual = 5.56073e-06, Final residual = 2.18011e-17, No Iterations 3
diagonal:  Solving for rho, Initial residual = 0, Final residual = 0, No Iterations 0
time step continuity errors : sum local = 1.10798e-16, global = 1.53336e-17, cumulative = -1.05537e-14
ExecutionTime = 0.17 s  ClockTime = 0 s

Courant Number mean: 0.00112977 max: 0.0285768
Time = 0.0005

PIMPLE: Iteration 1
diagonal:  Solving for rho, Initial residual = 0, Final residual = 0, No Iterations 0
smoothSolver:  Solving for Ux, Initial residual = 0.00396121, Final residual = 1.42314e-17, No Iterations 1
smoothSolver:  Solving for e, Initial residual = 0.000952801, Final residual = 7.0041e-16, No Iterations 3
smoothSolver:  Solving for p, Initial residual = 0.000356293, Final residual = 9.98973e-16, No Iterations 3
diagonal:  Solving for rho, Initial residual = 0, Final residual = 0, No Iterations 0
time step continuity errors : sum local = 1.85091e-15, global = -1.45669e-15, cumulative = -1.20104e-14
PIMPLE: Iteration 2
smoothSolver:  Solving for Ux, Initial residual = 4.09094e-05, Final residual = 1.40934e-17, No Iterations 1
smoothSolver:  Solving for e, Initial residual = 4.43127e-05, Final residual = 5.82336e-17, No Iterations 3
smoothSolver:  Solving for p, Initial residual = 5.34451e-06, Final residual = 1.78471e-17, No Iterations 3
diagonal:  Solving for rho, Initial residual = 0, Final residual = 0, No Iterations 0
time step continuity errors : sum local = 1.00658e-16, global = 2.59682e-17, cumulative = -1.19844e-14
ExecutionTime = 0.17 s  ClockTime = 0 s

Courant Number mean: 0.00115008 max: 0.028705
Time = 0.00051

PIMPLE: Iteration 1
diagonal:  Solving for rho, Initial residual = 0, Final residual = 0, No Iterations 0
smoothSolver:  Solving for Ux, Initial residual = 0.00391264, Final residual = 1.41026e-17, No Iterations 1
smoothSolver:  Solving for e, Initial residual = 0.000959289, Final residual = 6.99987e-16, No Iterations 3
smoothSolver:  Solving for p, Initial residual = 0.000361262, Final residual = 1.3574e-17, No Iterations 4
diagonal:  Solving for rho, Initial residual = 0, Final residual = 0, No Iterations 0
time step continuity errors : sum local = 1.30336e-16, global = 5.16891e-17, cumulative = -1.19328e-14
PIMPLE: Iteration 2
smoothSolver:  Solving for Ux, Initial residual = 3.98297e-05, Final residual = 7.93687e-18, No Iterations 1
smoothSolver:  Solving for e, Initial residual = 4.22161e-05, Final residual = 4.61589e-17, No Iterations 3
smoothSolver:  Solving for p, Initial residual = 5.11255e-06, Final residual = 1.85099e-17, No Iterations 3
diagonal:  Solving for rho, Initial residual = 0, Final residual = 0, No Iterations 0
time step continuity errors : sum local = 9.10124e-17, global = 1.03873e-17, cumulative = -1.19224e-14
ExecutionTime = 0.17 s  ClockTime = 0 s

Courant Number mean: 0.00117015 max: 0.0288023
Time = 0.00052

PIMPLE: Iteration 1
diagonal:  Solving for rho, Initial residual = 0, Final residual = 0, No Iterations 0
smoothSolver:  Solving for Ux, Initial residual = 0.00386497, Final residual = 1.63049e-17, No Iterations 1
smoothSolver:  Solving for e, Initial residual = 0.000963238, Final residual = 6.82511e-16, No Iterations 3
smoothSolver:  Solving for p, Initial residual = 0.000365588, Final residual = 1.30525e-17, No Iterations 4
diagonal:  Solving for rho, Initial residual = 0, Final residual = 0, No Iterations 0
time step continuity errors : sum local = 1.49132e-16, global = 2.84414e-17, cumulative = -1.18939e-14
PIMPLE: Iteration 2
smoothSolver:  Solving for Ux, Initial residual = 3.86616e-05, Final residual = 1.98982e-17, No Iterations 1
smoothSolver:  Solving for e, Initial residual = 4.00722e-05, Final residual = 2.9905e-17, No Iterations 3
smoothSolver:  Solving for p, Initial residual = 4.87792e-06, Final residual = 1.86725e-17, No Iterations 3
diagonal:  Solving for rho, Initial residual = 0, Final residual = 0, No Iterations 0
time step continuity errors : sum local = 1.06841e-16, global = -9.39802e-18, cumulative = -1.19033e-14
ExecutionTime = 0.18 s  ClockTime = 0 s

Courant Number mean: 0.00119001 max: 0.0288734
Time = 0.00053

PIMPLE: Iteration 1
diagonal:  Solving for rho, Initial residual = 0, Final residual = 0, No Iterations 0
smoothSolver:  Solving for Ux, Initial residual = 0.00381787, Final residual = 1.3024e-17, No Iterations 1
smoothSolver:  Solving for e, Initial residual = 0.000964977, Final residual = 6.41651e-16, No Iterations 3
smoothSolver:  Solving for p, Initial residual = 0.000369305, Final residual = 1.43979e-17, No Iterations 4
diagonal:  Solving for rho, Initial residual = 0, Final residual = 0, No Iterations 0
time step continuity errors : sum local = 1.4097e-16, global = 4.15491e-17, cumulative = -1.18618e-14
PIMPLE: Iteration 2
smoothSolver:  Solving for Ux, Initial residual = 3.74449e-05, Final residual = 2.65301e-17, No Iterations 1
smoothSolver:  Solving for e, Initial residual = 3.97206e-05, Final residual = 4.64652e-17, No Iterations 3
smoothSolver:  Solving for p, Initial residual = 4.83614e-06, Final residual = 1.71256e-17, No Iterations 3
diagonal:  Solving for rho, Initial residual = 0, Final residual = 0, No Iterations 0
time step continuity errors : sum local = 9.76899e-17, global = 3.28931e-17, cumulative = -1.18289e-14
ExecutionTime = 0.18 s  ClockTime = 0 s

Courant Number mean: 0.00120972 max: 0.0289238
Time = 0.00054

PIMPLE: Iteration 1
diagonal:  Solving for rho, Initial residual = 0, Final residual = 0, No Iterations 0
smoothSolver:  Solving for Ux, Initial residual = 0.00377133, Final residual = 1.4931e-17, No Iterations 1
smoothSolver:  Solving for e, Initial residual = 0.000964945, Final residual = 5.956e-16, No Iterations 3
smoothSolver:  Solving for p, Initial residual = 0.000372458, Final residual = 1.42967e-17, No Iterations 4
diagonal:  Solving for rho, Initial residual = 0, Final residual = 0, No Iterations 0
time step continuity errors : sum local = 1.2069e-16, global = 2.8194e-17, cumulative = -1.18007e-14
PIMPLE: Iteration 2
smoothSolver:  Solving for Ux, Initial residual = 3.62132e-05, Final residual = 1.15599e-17, No Iterations 1
smoothSolver:  Solving for e, Initial residual = 3.93864e-05, Final residual = 5.81358e-17, No Iterations 3
smoothSolver:  Solving for p, Initial residual = 4.78513e-06, Final residual = 1.7495e-17, No Iterations 3
diagonal:  Solving for rho, Initial residual = 0, Final residual = 0, No Iterations 0
time step continuity errors : sum local = 1.15249e-16, global = -4.45169e-18, cumulative = -1.18051e-14
ExecutionTime = 0.18 s  ClockTime = 0 s

Courant Number mean: 0.00122932 max: 0.0289581
Time = 0.00055

PIMPLE: Iteration 1
diagonal:  Solving for rho, Initial residual = 0, Final residual = 0, No Iterations 0
smoothSolver:  Solving for Ux, Initial residual = 0.0037254, Final residual = 1.87103e-17, No Iterations 1
smoothSolver:  Solving for e, Initial residual = 0.000963296, Final residual = 5.27906e-16, No Iterations 3
smoothSolver:  Solving for p, Initial residual = 0.000375094, Final residual = 1.52135e-17, No Iterations 4
diagonal:  Solving for rho, Initial residual = 0, Final residual = 0, No Iterations 0
time step continuity errors : sum local = 1.34293e-16, global = 3.14092e-17, cumulative = -1.17737e-14
PIMPLE: Iteration 2
smoothSolver:  Solving for Ux, Initial residual = 3.49867e-05, Final residual = 9.36108e-18, No Iterations 1
smoothSolver:  Solving for e, Initial residual = 4.68634e-05, Final residual = 2.27165e-16, No Iterations 3
smoothSolver:  Solving for p, Initial residual = 5.46163e-06, Final residual = 3.30041e-17, No Iterations 3
diagonal:  Solving for rho, Initial residual = 0, Final residual = 0, No Iterations 0
time step continuity errors : sum local = 1.28604e-16, global = 4.3033e-17, cumulative = -1.17307e-14
ExecutionTime = 0.19 s  ClockTime = 0 s

Courant Number mean: 0.00124886 max: 0.0289809
Time = 0.00056

PIMPLE: Iteration 1
diagonal:  Solving for rho, Initial residual = 0, Final residual = 0, No Iterations 0
smoothSolver:  Solving for Ux, Initial residual = 0.00367931, Final residual = 1.77269e-17, No Iterations 1
smoothSolver:  Solving for e, Initial residual = 0.000941773, Final residual = 3.27514e-16, No Iterations 3
smoothSolver:  Solving for p, Initial residual = 0.000375018, Final residual = 1.48683e-17, No Iterations 4
diagonal:  Solving for rho, Initial residual = 0, Final residual = 0, No Iterations 0
time step continuity errors : sum local = 1.40228e-16, global = 4.57535e-17, cumulative = -1.16849e-14
PIMPLE: Iteration 2
smoothSolver:  Solving for Ux, Initial residual = 3.37845e-05, Final residual = 1.47194e-17, No Iterations 1
smoothSolver:  Solving for e, Initial residual = 5.44771e-05, Final residual = 2.82886e-16, No Iterations 3
smoothSolver:  Solving for p, Initial residual = 6.37922e-06, Final residual = 4.2115e-17, No Iterations 3
diagonal:  Solving for rho, Initial residual = 0, Final residual = 0, No Iterations 0
time step continuity errors : sum local = 1.45422e-16, global = 5.63881e-17, cumulative = -1.16286e-14
ExecutionTime = 0.19 s  ClockTime = 0 s

Courant Number mean: 0.00126844 max: 0.0289954
Time = 0.00057

PIMPLE: Iteration 1
diagonal:  Solving for rho, Initial residual = 0, Final residual = 0, No Iterations 0
smoothSolver:  Solving for Ux, Initial residual = 0.00363278, Final residual = 9.47934e-18, No Iterations 1
smoothSolver:  Solving for e, Initial residual = 0.000913609, Final residual = 3.95014e-16, No Iterations 3
smoothSolver:  Solving for p, Initial residual = 0.000373872, Final residual = 1.22177e-17, No Iterations 4
diagonal:  Solving for rho, Initial residual = 0, Final residual = 0, No Iterations 0
time step continuity errors : sum local = 1.49132e-16, global = 4.08072e-17, cumulative = -1.15878e-14
PIMPLE: Iteration 2
smoothSolver:  Solving for Ux, Initial residual = 3.26931e-05, Final residual = 1.20734e-17, No Iterations 1
smoothSolver:  Solving for e, Initial residual = 5.40841e-05, Final residual = 2.62153e-16, No Iterations 3
smoothSolver:  Solving for p, Initial residual = 6.30888e-06, Final residual = 4.28721e-17, No Iterations 3
diagonal:  Solving for rho, Initial residual = 0, Final residual = 0, No Iterations 0
time step continuity errors : sum local = 1.6125e-16, global = 3.85813e-17, cumulative = -1.15492e-14
ExecutionTime = 0.19 s  ClockTime = 0 s

Courant Number mean: 0.00128812 max: 0.029004
Time = 0.00058

PIMPLE: Iteration 1
diagonal:  Solving for rho, Initial residual = 0, Final residual = 0, No Iterations 0
smoothSolver:  Solving for Ux, Initial residual = 0.00358568, Final residual = 1.87975e-17, No Iterations 1
smoothSolver:  Solving for e, Initial residual = 0.000906716, Final residual = 5.95087e-16, No Iterations 3
smoothSolver:  Solving for p, Initial residual = 0.000372504, Final residual = 1.42521e-17, No Iterations 4
diagonal:  Solving for rho, Initial residual = 0, Final residual = 0, No Iterations 0
time step continuity errors : sum local = 1.20443e-16, global = 5.11945e-17, cumulative = -1.1498e-14
PIMPLE: Iteration 2
smoothSolver:  Solving for Ux, Initial residual = 3.17025e-05, Final residual = 9.3233e-18, No Iterations 1
smoothSolver:  Solving for e, Initial residual = 5.37216e-05, Final residual = 2.36635e-16, No Iterations 3
smoothSolver:  Solving for p, Initial residual = 1.00791e-05, Final residual = 7.39032e-17, No Iterations 3
diagonal:  Solving for rho, Initial residual = 0, Final residual = 0, No Iterations 0
time step continuity errors : sum local = 1.94391e-16, global = 7.91412e-17, cumulative = -1.14188e-14
ExecutionTime = 0.2 s  ClockTime = 0 s

Courant Number mean: 0.00131458 max: 0.029282
Time = 0.00059

PIMPLE: Iteration 1
diagonal:  Solving for rho, Initial residual = 0, Final residual = 0, No Iterations 0
smoothSolver:  Solving for Ux, Initial residual = 0.00355941, Final residual = 1.10278e-17, No Iterations 1
smoothSolver:  Solving for e, Initial residual = 0.00092885, Final residual = 9.39426e-16, No Iterations 3
smoothSolver:  Solving for p, Initial residual = 0.000370872, Final residual = 1.40756e-17, No Iterations 4
diagonal:  Solving for rho, Initial residual = 0, Final residual = 0, No Iterations 0
time step continuity errors : sum local = 1.39239e-16, global = 4.42696e-17, cumulative = -1.13746e-14
PIMPLE: Iteration 2
smoothSolver:  Solving for Ux, Initial residual = 3.34345e-05, Final residual = 1.14358e-17, No Iterations 1
smoothSolver:  Solving for e, Initial residual = 6.21239e-05, Final residual = 2.95186e-16, No Iterations 3
smoothSolver:  Solving for p, Initial residual = 1.08088e-05, Final residual = 8.55382e-17, No Iterations 3
diagonal:  Solving for rho, Initial residual = 0, Final residual = 0, No Iterations 0
time step continuity errors : sum local = 2.10961e-16, global = 6.94958e-17, cumulative = -1.13051e-14
ExecutionTime = 0.2 s  ClockTime = 0 s

Courant Number mean: 0.00134462 max: 0.0297126
Time = 0.0006

PIMPLE: Iteration 1
diagonal:  Solving for rho, Initial residual = 0, Final residual = 0, No Iterations 0
smoothSolver:  Solving for Ux, Initial residual = 0.00356804, Final residual = 1.62857e-17, No Iterations 1
smoothSolver:  Solving for e, Initial residual = 0.000957945, Final residual = 3.31923e-17, No Iterations 4
smoothSolver:  Solving for p, Initial residual = 0.000368965, Final residual = 9.45883e-16, No Iterations 3
diagonal:  Solving for rho, Initial residual = 0, Final residual = 0, No Iterations 0
time step continuity errors : sum local = 1.73022e-15, global = -1.26131e-15, cumulative = -1.25664e-14
PIMPLE: Iteration 2
smoothSolver:  Solving for Ux, Initial residual = 3.41717e-05, Final residual = 8.23672e-18, No Iterations 1
smoothSolver:  Solving for e, Initial residual = 6.96614e-05, Final residual = 3.56387e-16, No Iterations 3
smoothSolver:  Solving for p, Initial residual = 1.09762e-05, Final residual = 8.5511e-17, No Iterations 3
diagonal:  Solving for rho, Initial residual = 0, Final residual = 0, No Iterations 0
time step continuity errors : sum local = 2.19617e-16, global = 8.85392e-17, cumulative = -1.24778e-14
ExecutionTime = 0.2 s  ClockTime = 0 s

Courant Number mean: 0.00137682 max: 0.0302479
Time = 0.00061

PIMPLE: Iteration 1
diagonal:  Solving for rho, Initial residual = 0, Final residual = 0, No Iterations 0
smoothSolver:  Solving for Ux, Initial residual = 0.00357182, Final residual = 1.59655e-17, No Iterations 1
smoothSolver:  Solving for e, Initial residual = 0.000991322, Final residual = 3.30429e-17, No Iterations 4
smoothSolver:  Solving for p, Initial residual = 0.000366759, Final residual = 8.89393e-16, No Iterations 3
diagonal:  Solving for rho, Initial residual = 0, Final residual = 0, No Iterations 0
time step continuity errors : sum local = 1.6449e-15, global = -1.18044e-15, cumulative = -1.36583e-14
PIMPLE: Iteration 2
smoothSolver:  Solving for Ux, Initial residual = 3.40982e-05, Final residual = 3.90773e-18, No Iterations 1
smoothSolver:  Solving for e, Initial residual = 7.63289e-05, Final residual = 4.64531e-16, No Iterations 3
smoothSolver:  Solving for p, Initial residual = 1.09583e-05, Final residual = 8.74893e-17, No Iterations 3
diagonal:  Solving for rho, Initial residual = 0, Final residual = 0, No Iterations 0
time step continuity errors : sum local = 2.18875e-16, global = 7.64207e-17, cumulative = -1.35819e-14
ExecutionTime = 0.21 s  ClockTime = 0 s

Courant Number mean: 0.00141053 max: 0.0308711
Time = 0.00062

PIMPLE: Iteration 1
diagonal:  Solving for rho, Initial residual = 0, Final residual = 0, No Iterations 0
smoothSolver:  Solving for Ux, Initial residual = 0.00357011, Final residual = 1.06584e-17, No Iterations 1
smoothSolver:  Solving for e, Initial residual = 0.00102778, Final residual = 3.34478e-17, No Iterations 4
smoothSolver:  Solving for p, Initial residual = 0.000364193, Final residual = 8.82e-16, No Iterations 3
diagonal:  Solving for rho, Initial residual = 0, Final residual = 0, No Iterations 0
time step continuity errors : sum local = 1.62289e-15, global = -1.19157e-15, cumulative = -1.47734e-14
PIMPLE: Iteration 2
smoothSolver:  Solving for Ux, Initial residual = 3.33259e-05, Final residual = 1.07334e-17, No Iterations 1
smoothSolver:  Solving for e, Initial residual = 8.17747e-05, Final residual = 5.90386e-16, No Iterations 3
smoothSolver:  Solving for p, Initial residual = 1.06989e-05, Final residual = 8.38354e-17, No Iterations 3
diagonal:  Solving for rho, Initial residual = 0, Final residual = 0, No Iterations 0
time step continuity errors : sum local = 2.12939e-16, global = 7.79046e-17, cumulative = -1.46955e-14
ExecutionTime = 0.21 s  ClockTime = 0 s

Courant Number mean: 0.00144502 max: 0.0315587
Time = 0.00063

PIMPLE: Iteration 1
diagonal:  Solving for rho, Initial residual = 0, Final residual = 0, No Iterations 0
[...]
smoothSolver:  Solving for Ux, Initial residual = 0.000557398, Final residual = 2.84521e-17, No Iterations 1
smoothSolver:  Solving for e, Initial residual = 0.00105391, Final residual = 7.99051e-17, No Iterations 4
smoothSolver:  Solving for p, Initial residual = 0.000464541, Final residual = 4.84727e-16, No Iterations 3
diagonal:  Solving for rho, Initial residual = 0, Final residual = 0, No Iterations 0
time step continuity errors : sum local = 5.94795e-16, global = -3.56383e-16, cumulative = -2.15748e-13
PIMPLE: Iteration 2
smoothSolver:  Solving for Ux, Initial residual = 1.97353e-06, Final residual = 2.54495e-17, No Iterations 1
smoothSolver:  Solving for e, Initial residual = 1.51756e-05, Final residual = 1.14252e-16, No Iterations 3
smoothSolver:  Solving for p, Initial residual = 3.20105e-06, Final residual = 5.46195e-17, No Iterations 3
diagonal:  Solving for rho, Initial residual = 0, Final residual = 0, No Iterations 0
time step continuity errors : sum local = 1.46906e-16, global = -8.40875e-18, cumulative = -2.15756e-13
ExecutionTime = 2.27 s  ClockTime = 2 s

Courant Number mean: 0.0152584 max: 0.0295653
Time = 0.00686

PIMPLE: Iteration 1
diagonal:  Solving for rho, Initial residual = 0, Final residual = 0, No Iterations 0
smoothSolver:  Solving for Ux, Initial residual = 0.000556185, Final residual = 2.46075e-17, No Iterations 1
smoothSolver:  Solving for e, Initial residual = 0.00105149, Final residual = 7.97917e-17, No Iterations 4
smoothSolver:  Solving for p, Initial residual = 0.000464394, Final residual = 4.96074e-16, No Iterations 3
diagonal:  Solving for rho, Initial residual = 0, Final residual = 0, No Iterations 0
time step continuity errors : sum local = 5.83914e-16, global = -3.3907e-16, cumulative = -2.16095e-13
PIMPLE: Iteration 2
smoothSolver:  Solving for Ux, Initial residual = 1.91945e-06, Final residual = 3.07006e-17, No Iterations 1
smoothSolver:  Solving for e, Initial residual = 1.51868e-05, Final residual = 1.18842e-16, No Iterations 3
smoothSolver:  Solving for p, Initial residual = 3.63221e-06, Final residual = 6.42838e-17, No Iterations 3
diagonal:  Solving for rho, Initial residual = 0, Final residual = 0, No Iterations 0
time step continuity errors : sum local = 1.59766e-16, global = -5.93559e-18, cumulative = -2.16101e-13
ExecutionTime = 2.27 s  ClockTime = 2 s

Courant Number mean: 0.0152738 max: 0.029563
Time = 0.00687

PIMPLE: Iteration 1
diagonal:  Solving for rho, Initial residual = 0, Final residual = 0, No Iterations 0
smoothSolver:  Solving for Ux, Initial residual = 0.000554986, Final residual = 2.20999e-17, No Iterations 1
smoothSolver:  Solving for e, Initial residual = 0.00104897, Final residual = 6.74495e-17, No Iterations 4
smoothSolver:  Solving for p, Initial residual = 0.000464115, Final residual = 5.14943e-16, No Iterations 3
diagonal:  Solving for rho, Initial residual = 0, Final residual = 0, No Iterations 0
time step continuity errors : sum local = 6.24226e-16, global = -3.73447e-16, cumulative = -2.16475e-13
PIMPLE: Iteration 2
smoothSolver:  Solving for Ux, Initial residual = 1.88598e-06, Final residual = 2.21109e-17, No Iterations 1
smoothSolver:  Solving for e, Initial residual = 1.94693e-05, Final residual = 1.18328e-16, No Iterations 3
smoothSolver:  Solving for p, Initial residual = 4.48731e-06, Final residual = 6.40956e-17, No Iterations 3
diagonal:  Solving for rho, Initial residual = 0, Final residual = 0, No Iterations 0
time step continuity errors : sum local = 1.49379e-16, global = -1.53336e-17, cumulative = -2.1649e-13
ExecutionTime = 2.27 s  ClockTime = 2 s

Courant Number mean: 0.0152888 max: 0.0295621
Time = 0.00688

PIMPLE: Iteration 1
diagonal:  Solving for rho, Initial residual = 0, Final residual = 0, No Iterations 0
smoothSolver:  Solving for Ux, Initial residual = 0.000553841, Final residual = 3.13458e-17, No Iterations 1
smoothSolver:  Solving for e, Initial residual = 0.00104661, Final residual = 7.65892e-17, No Iterations 4
smoothSolver:  Solving for p, Initial residual = 0.000464105, Final residual = 5.29014e-16, No Iterations 3
diagonal:  Solving for rho, Initial residual = 0, Final residual = 0, No Iterations 0
time step continuity errors : sum local = 6.46979e-16, global = -4.02136e-16, cumulative = -2.16892e-13
PIMPLE: Iteration 2
smoothSolver:  Solving for Ux, Initial residual = 1.8694e-06, Final residual = 2.37497e-17, No Iterations 1
smoothSolver:  Solving for e, Initial residual = 2.13347e-05, Final residual = 1.20875e-16, No Iterations 3
smoothSolver:  Solving for p, Initial residual = 4.92079e-06, Final residual = 5.6034e-17, No Iterations 3
diagonal:  Solving for rho, Initial residual = 0, Final residual = 0, No Iterations 0
time step continuity errors : sum local = 1.26379e-16, global = -6.65281e-17, cumulative = -2.16959e-13
ExecutionTime = 2.28 s  ClockTime = 2 s

Courant Number mean: 0.0153035 max: 0.0295633
Time = 0.00689

PIMPLE: Iteration 1
diagonal:  Solving for rho, Initial residual = 0, Final residual = 0, No Iterations 0
smoothSolver:  Solving for Ux, Initial residual = 0.000552727, Final residual = 2.45685e-17, No Iterations 1
smoothSolver:  Solving for e, Initial residual = 0.00104441, Final residual = 7.27368e-17, No Iterations 4
smoothSolver:  Solving for p, Initial residual = 0.000464076, Final residual = 5.54793e-16, No Iterations 3
diagonal:  Solving for rho, Initial residual = 0, Final residual = 0, No Iterations 0
time step continuity errors : sum local = 7.02873e-16, global = -4.05104e-16, cumulative = -2.17364e-13
PIMPLE: Iteration 2
smoothSolver:  Solving for Ux, Initial residual = 1.86264e-06, Final residual = 2.76692e-17, No Iterations 1
smoothSolver:  Solving for e, Initial residual = 2.27907e-05, Final residual = 1.33038e-16, No Iterations 3
smoothSolver:  Solving for p, Initial residual = 6.26841e-06, Final residual = 6.17623e-17, No Iterations 3
diagonal:  Solving for rho, Initial residual = 0, Final residual = 0, No Iterations 0
time step continuity errors : sum local = 1.33303e-16, global = 7.41949e-19, cumulative = -2.17363e-13
ExecutionTime = 2.28 s  ClockTime = 2 s

Courant Number mean: 0.0153196 max: 0.0295629
Time = 0.0069

PIMPLE: Iteration 1
diagonal:  Solving for rho, Initial residual = 0, Final residual = 0, No Iterations 0
smoothSolver:  Solving for Ux, Initial residual = 0.000551913, Final residual = 2.38422e-17, No Iterations 1
smoothSolver:  Solving for e, Initial residual = 0.00104304, Final residual = 7.30688e-17, No Iterations 4
smoothSolver:  Solving for p, Initial residual = 0.000464459, Final residual = 5.81281e-16, No Iterations 3
diagonal:  Solving for rho, Initial residual = 0, Final residual = 0, No Iterations 0
time step continuity errors : sum local = 7.01636e-16, global = -4.13265e-16, cumulative = -2.17776e-13
PIMPLE: Iteration 2
smoothSolver:  Solving for Ux, Initial residual = 2.00484e-06, Final residual = 2.55296e-17, No Iterations 1
smoothSolver:  Solving for e, Initial residual = 2.47037e-05, Final residual = 1.41608e-16, No Iterations 3
smoothSolver:  Solving for p, Initial residual = 8.83772e-06, Final residual = 8.06312e-17, No Iterations 3
diagonal:  Solving for rho, Initial residual = 0, Final residual = 0, No Iterations 0
time step continuity errors : sum local = 1.65702e-16, global = 1.83014e-17, cumulative = -2.17758e-13
ExecutionTime = 2.28 s  ClockTime = 2 s

Courant Number mean: 0.0153398 max: 0.029561
Time = 0.00691

PIMPLE: Iteration 1
diagonal:  Solving for rho, Initial residual = 0, Final residual = 0, No Iterations 0
smoothSolver:  Solving for Ux, Initial residual = 0.000551777, Final residual = 2.48047e-17, No Iterations 1
smoothSolver:  Solving for e, Initial residual = 0.0010438, Final residual = 6.57237e-17, No Iterations 4
smoothSolver:  Solving for p, Initial residual = 0.000465374, Final residual = 5.9418e-16, No Iterations 3
diagonal:  Solving for rho, Initial residual = 0, Final residual = 0, No Iterations 0
time step continuity errors : sum local = 7.27852e-16, global = -4.17717e-16, cumulative = -2.18176e-13
PIMPLE: Iteration 2
smoothSolver:  Solving for Ux, Initial residual = 2.51646e-06, Final residual = 2.47669e-17, No Iterations 1
smoothSolver:  Solving for e, Initial residual = 3.03149e-05, Final residual = 1.63039e-16, No Iterations 3
smoothSolver:  Solving for p, Initial residual = 9.61931e-06, Final residual = 6.42007e-17, No Iterations 3
diagonal:  Solving for rho, Initial residual = 0, Final residual = 0, No Iterations 0
time step continuity errors : sum local = 1.61745e-16, global = 5.44096e-18, cumulative = -2.1817e-13
ExecutionTime = 2.29 s  ClockTime = 2 s

Courant Number mean: 0.0153628 max: 0.0295611
Time = 0.00692

PIMPLE: Iteration 1
diagonal:  Solving for rho, Initial residual = 0, Final residual = 0, No Iterations 0
smoothSolver:  Solving for Ux, Initial residual = 0.000552108, Final residual = 2.94393e-17, No Iterations 1
smoothSolver:  Solving for e, Initial residual = 0.00104561, Final residual = 6.83295e-17, No Iterations 4
smoothSolver:  Solving for p, Initial residual = 0.000466417, Final residual = 6.03108e-16, No Iterations 3
diagonal:  Solving for rho, Initial residual = 0, Final residual = 0, No Iterations 0
time step continuity errors : sum local = 7.28099e-16, global = -4.3676e-16, cumulative = -2.18607e-13
PIMPLE: Iteration 2
smoothSolver:  Solving for Ux, Initial residual = 3.07031e-06, Final residual = 2.44716e-17, No Iterations 1
smoothSolver:  Solving for e, Initial residual = 3.55765e-05, Final residual = 1.76914e-16, No Iterations 3
smoothSolver:  Solving for p, Initial residual = 1.03226e-05, Final residual = 6.62009e-17, No Iterations 3
diagonal:  Solving for rho, Initial residual = 0, Final residual = 0, No Iterations 0
time step continuity errors : sum local = 1.78315e-16, global = 1.60756e-17, cumulative = -2.18591e-13
ExecutionTime = 2.29 s  ClockTime = 2 s

Courant Number mean: 0.0153889 max: 0.029561
Time = 0.00693

PIMPLE: Iteration 1
diagonal:  Solving for rho, Initial residual = 0, Final residual = 0, No Iterations 0
smoothSolver:  Solving for Ux, Initial residual = 0.000552927, Final residual = 2.75343e-17, No Iterations 1
smoothSolver:  Solving for e, Initial residual = 0.0010482, Final residual = 7.14724e-17, No Iterations 4
smoothSolver:  Solving for p, Initial residual = 0.000467521, Final residual = 5.94293e-16, No Iterations 3
diagonal:  Solving for rho, Initial residual = 0, Final residual = 0, No Iterations 0
time step continuity errors : sum local = 7.05346e-16, global = -4.45169e-16, cumulative = -2.19036e-13
PIMPLE: Iteration 2
smoothSolver:  Solving for Ux, Initial residual = 3.78854e-06, Final residual = 2.55159e-17, No Iterations 1
smoothSolver:  Solving for e, Initial residual = 4.1794e-05, Final residual = 1.8639e-16, No Iterations 3
smoothSolver:  Solving for p, Initial residual = 1.11323e-05, Final residual = 7.3301e-17, No Iterations 3
diagonal:  Solving for rho, Initial residual = 0, Final residual = 0, No Iterations 0
time step continuity errors : sum local = 1.5111e-16, global = 2.69575e-17, cumulative = -2.19009e-13
ExecutionTime = 2.29 s  ClockTime = 2 s

Courant Number mean: 0.0154192 max: 0.0295605
Time = 0.00694

PIMPLE: Iteration 1
diagonal:  Solving for rho, Initial residual = 0, Final residual = 0, No Iterations 0
smoothSolver:  Solving for Ux, Initial residual = 0.000554365, Final residual = 2.96778e-17, No Iterations 1
smoothSolver:  Solving for e, Initial residual = 0.00105171, Final residual = 7.74404e-17, No Iterations 4
smoothSolver:  Solving for p, Initial residual = 0.000468766, Final residual = 5.69659e-16, No Iterations 3
diagonal:  Solving for rho, Initial residual = 0, Final residual = 0, No Iterations 0
time step continuity errors : sum local = 6.72453e-16, global = -4.12771e-16, cumulative = -2.19422e-13
PIMPLE: Iteration 2
smoothSolver:  Solving for Ux, Initial residual = 4.4166e-06, Final residual = 2.6781e-17, No Iterations 1
smoothSolver:  Solving for e, Initial residual = 4.7482e-05, Final residual = 2.02273e-16, No Iterations 3
smoothSolver:  Solving for p, Initial residual = 1.16063e-05, Final residual = 6.95264e-17, No Iterations 3
diagonal:  Solving for rho, Initial residual = 0, Final residual = 0, No Iterations 0
time step continuity errors : sum local = 1.40723e-16, global = 3.48716e-17, cumulative = -2.19387e-13
ExecutionTime = 2.3 s  ClockTime = 2 s

Courant Number mean: 0.0154529 max: 0.0295598
Time = 0.00695

PIMPLE: Iteration 1
diagonal:  Solving for rho, Initial residual = 0, Final residual = 0, No Iterations 0
smoothSolver:  Solving for Ux, Initial residual = 0.000556262, Final residual = 2.67643e-17, No Iterations 1
smoothSolver:  Solving for e, Initial residual = 0.00105575, Final residual = 7.14495e-17, No Iterations 4
smoothSolver:  Solving for p, Initial residual = 0.000470125, Final residual = 5.61184e-16, No Iterations 3
diagonal:  Solving for rho, Initial residual = 0, Final residual = 0, No Iterations 0
time step continuity errors : sum local = 6.67012e-16, global = -4.009e-16, cumulative = -2.19788e-13
PIMPLE: Iteration 2
smoothSolver:  Solving for Ux, Initial residual = 4.45021e-06, Final residual = 2.12305e-17, No Iterations 1
smoothSolver:  Solving for e, Initial residual = 4.75158e-05, Final residual = 2.1318e-16, No Iterations 3
smoothSolver:  Solving for p, Initial residual = 1.098e-05, Final residual = 7.78126e-17, No Iterations 3
diagonal:  Solving for rho, Initial residual = 0, Final residual = 0, No Iterations 0
time step continuity errors : sum local = 1.52099e-16, global = 1.45917e-17, cumulative = -2.19774e-13
ExecutionTime = 2.3 s  ClockTime = 2 s

Courant Number mean: 0.0154863 max: 0.0295601
Time = 0.00696

PIMPLE: Iteration 1
diagonal:  Solving for rho, Initial residual = 0, Final residual = 0, No Iterations 0
smoothSolver:  Solving for Ux, Initial residual = 0.000557987, Final residual = 2.73592e-17, No Iterations 1
smoothSolver:  Solving for e, Initial residual = 0.00105879, Final residual = 6.85222e-17, No Iterations 4
smoothSolver:  Solving for p, Initial residual = 0.000471306, Final residual = 5.28521e-16, No Iterations 3
diagonal:  Solving for rho, Initial residual = 0, Final residual = 0, No Iterations 0
time step continuity errors : sum local = 6.2571e-16, global = -3.81362e-16, cumulative = -2.20155e-13
PIMPLE: Iteration 2
smoothSolver:  Solving for Ux, Initial residual = 3.97958e-06, Final residual = 2.99668e-17, No Iterations 1
smoothSolver:  Solving for e, Initial residual = 4.18484e-05, Final residual = 1.84616e-16, No Iterations 3
smoothSolver:  Solving for p, Initial residual = 9.14361e-06, Final residual = 7.559e-17, No Iterations 3
diagonal:  Solving for rho, Initial residual = 0, Final residual = 0, No Iterations 0
time step continuity errors : sum local = 1.59766e-16, global = 1.58282e-17, cumulative = -2.20139e-13
ExecutionTime = 2.31 s  ClockTime = 2 s

Courant Number mean: 0.0155161 max: 0.0295609
Time = 0.00697

PIMPLE: Iteration 1
diagonal:  Solving for rho, Initial residual = 0, Final residual = 0, No Iterations 0
smoothSolver:  Solving for Ux, Initial residual = 0.000559053, Final residual = 2.93747e-17, No Iterations 1
smoothSolver:  Solving for e, Initial residual = 0.0010612, Final residual = 8.20844e-17, No Iterations 4
smoothSolver:  Solving for p, Initial residual = 0.000472558, Final residual = 5.06883e-16, No Iterations 3
diagonal:  Solving for rho, Initial residual = 0, Final residual = 0, No Iterations 0
time step continuity errors : sum local = 6.11118e-16, global = -2.88618e-16, cumulative = -2.20428e-13
PIMPLE: Iteration 2
smoothSolver:  Solving for Ux, Initial residual = 3.33885e-06, Final residual = 2.75113e-17, No Iterations 1
smoothSolver:  Solving for e, Initial residual = 3.37451e-05, Final residual = 1.74074e-16, No Iterations 3
smoothSolver:  Solving for p, Initial residual = 7.28603e-06, Final residual = 6.33645e-17, No Iterations 3
diagonal:  Solving for rho, Initial residual = 0, Final residual = 0, No Iterations 0
time step continuity errors : sum local = 1.40228e-16, global = 2.47316e-19, cumulative = -2.20427e-13
ExecutionTime = 2.31 s  ClockTime = 2 s

Courant Number mean: 0.0155415 max: 0.0295612
Time = 0.00698

PIMPLE: Iteration 1
diagonal:  Solving for rho, Initial residual = 0, Final residual = 0, No Iterations 0
smoothSolver:  Solving for Ux, Initial residual = 0.000559352, Final residual = 2.85165e-17, No Iterations 1
smoothSolver:  Solving for e, Initial residual = 0.00106141, Final residual = 8.6786e-17, No Iterations 4
smoothSolver:  Solving for p, Initial residual = 0.000473179, Final residual = 5.01022e-16, No Iterations 3
diagonal:  Solving for rho, Initial residual = 0, Final residual = 0, No Iterations 0
time step continuity errors : sum local = 6.06914e-16, global = -3.13597e-16, cumulative = -2.20741e-13
PIMPLE: Iteration 2
smoothSolver:  Solving for Ux, Initial residual = 2.78486e-06, Final residual = 2.42456e-17, No Iterations 1
smoothSolver:  Solving for e, Initial residual = 2.64964e-05, Final residual = 1.54089e-16, No Iterations 3
smoothSolver:  Solving for p, Initial residual = 5.76068e-06, Final residual = 6.41399e-17, No Iterations 3
diagonal:  Solving for rho, Initial residual = 0, Final residual = 0, No Iterations 0
time step continuity errors : sum local = 1.46659e-16, global = -8.65607e-18, cumulative = -2.2075e-13
ExecutionTime = 2.32 s  ClockTime = 2 s

Courant Number mean: 0.0155632 max: 0.029565
Time = 0.00699

PIMPLE: Iteration 1
diagonal:  Solving for rho, Initial residual = 0, Final residual = 0, No Iterations 0
smoothSolver:  Solving for Ux, Initial residual = 0.000559037, Final residual = 2.57119e-17, No Iterations 1
smoothSolver:  Solving for e, Initial residual = 0.00105999, Final residual = 7.18175e-17, No Iterations 4
smoothSolver:  Solving for p, Initial residual = 0.000473186, Final residual = 4.91255e-16, No Iterations 3
diagonal:  Solving for rho, Initial residual = 0, Final residual = 0, No Iterations 0
time step continuity errors : sum local = 5.7872e-16, global = -3.18543e-16, cumulative = -2.21068e-13
PIMPLE: Iteration 2
smoothSolver:  Solving for Ux, Initial residual = 2.39575e-06, Final residual = 2.86677e-17, No Iterations 1
smoothSolver:  Solving for e, Initial residual = 2.13825e-05, Final residual = 1.36262e-16, No Iterations 3
smoothSolver:  Solving for p, Initial residual = 4.50369e-06, Final residual = 5.69967e-17, No Iterations 3
diagonal:  Solving for rho, Initial residual = 0, Final residual = 0, No Iterations 0
time step continuity errors : sum local = 1.32314e-16, global = -2.22585e-18, cumulative = -2.21071e-13
ExecutionTime = 2.32 s  ClockTime = 2 s

Courant Number mean: 0.0155822 max: 0.0295684
Time = 0.007

PIMPLE: Iteration 1
diagonal:  Solving for rho, Initial residual = 0, Final residual = 0, No Iterations 0
smoothSolver:  Solving for Ux, Initial residual = 0.000558305, Final residual = 2.6384e-17, No Iterations 1
smoothSolver:  Solving for e, Initial residual = 0.00105757, Final residual = 7.38939e-17, No Iterations 4
smoothSolver:  Solving for p, Initial residual = 0.000472974, Final residual = 4.738e-16, No Iterations 3
diagonal:  Solving for rho, Initial residual = 0, Final residual = 0, No Iterations 0
time step continuity errors : sum local = 5.74021e-16, global = -3.02468e-16, cumulative = -2.21373e-13
PIMPLE: Iteration 2
smoothSolver:  Solving for Ux, Initial residual = 2.14911e-06, Final residual = 3.02424e-17, No Iterations 1
smoothSolver:  Solving for e, Initial residual = 1.82441e-05, Final residual = 1.43995e-16, No Iterations 3
smoothSolver:  Solving for p, Initial residual = 3.82079e-06, Final residual = 5.96185e-17, No Iterations 3
diagonal:  Solving for rho, Initial residual = 0, Final residual = 0, No Iterations 0
time step continuity errors : sum local = 1.54325e-16, global = -8.90338e-18, cumulative = -2.21382e-13
ExecutionTime = 2.32 s  ClockTime = 2 s

End

