/*---------------------------------------------------------------------------*\
  =========                 |
  \\      /  F ield         | OpenFOAM: The Open Source CFD Toolbox
   \\    /   O peration     | Website:  https://openfoam.org
    \\  /    A nd           | Version:  9
     \\/     M anipulation  |
\*---------------------------------------------------------------------------*/
Build  : 9-c8374a4890ad
Exec   : interFoam
Date   : Feb 07 2022
Time   : 11:09:34
Host   : "endeavouros"
PID    : 126957
I/O    : uncollated
Case   : /home/ariedinger/uni/gimap/openfoam/03wiki3weeksSeries/day11/02codeStreamFieldInitialization/codeStream_INIT/elliptical_IC
nProcs : 1
sigFpe : Enabling floating point exception trapping (FOAM_SIGFPE).
fileModificationChecking : Monitoring run-time modified files using timeStampMaster (fileModificationSkew 10)
allowSystemOperations : Allowing user-supplied system call operations

// * * * * * * * * * * * * * * * * * * * * * * * * * * * * * * * * * * * * * //
Create time

Create mesh for time = 0

Selecting dynamicFvMesh staticFvMesh

PIMPLE: No convergence criteria found


PIMPLE: Operating solver in transient mode with 1 outer corrector
PIMPLE: Operating solver in PISO mode


Reading field p_rgh

Reading field U

Reading/calculating face flux field phi

Reading transportProperties

Using #codeStream at line 21 in file "/home/ariedinger/uni/gimap/openfoam/03wiki3weeksSeries/day11/02codeStreamFieldInitialization/codeStream_INIT/elliptical_IC/0/alpha.phase1"
Using #codeStream with "/home/ariedinger/uni/gimap/openfoam/03wiki3weeksSeries/day11/02codeStreamFieldInitialization/codeStream_INIT/elliptical_IC/dynamicCode/platforms/linux64GccDPInt32Opt/lib/libcodeStream_df3a5a6818c25fad4ac9515432e1b46df46e3b2a.so"
Creating new library in "dynamicCode/_df3a5a6818c25fad4ac9515432e1b46df46e3b2a/platforms/linux64GccDPInt32Opt/lib/libcodeStream_df3a5a6818c25fad4ac9515432e1b46df46e3b2a.so"
"/opt/OpenFOAM/OpenFOAM-9/etc/codeTemplates/dynamicCode/codeStreamTemplate.C" "/home/ariedinger/uni/gimap/openfoam/03wiki3weeksSeries/day11/02codeStreamFieldInitialization/codeStream_INIT/elliptical_IC/dynamicCode/_df3a5a6818c25fad4ac9515432e1b46df46e3b2a/codeStreamTemplate.C"
Invoking "wmake -s libso /home/ariedinger/uni/gimap/openfoam/03wiki3weeksSeries/day11/02codeStreamFieldInitialization/codeStream_INIT/elliptical_IC/dynamicCode/_df3a5a6818c25fad4ac9515432e1b46df46e3b2a"
wmake libso /home/ariedinger/uni/gimap/openfoam/03wiki3weeksSeries/day11/02codeStreamFieldInitialization/codeStream_INIT/elliptical_IC/dynamicCode/_df3a5a6818c25fad4ac9515432e1b46df46e3b2a
    wmkdep: codeStreamTemplate.C
    Ctoo: codeStreamTemplate.C
    ld: /home/ariedinger/uni/gimap/openfoam/03wiki3weeksSeries/day11/02codeStreamFieldInitialization/codeStream_INIT/elliptical_IC/dynamicCode/_df3a5a6818c25fad4ac9515432e1b46df46e3b2a/../platforms/linux64GccDPInt32Opt/lib/libcodeStream_df3a5a6818c25fad4ac9515432e1b46df46e3b2a.so
codeStream : dictionary:"/home/ariedinger/uni/gimap/openfoam/03wiki3weeksSeries/day11/02codeStreamFieldInitialization/codeStream_INIT/elliptical_IC/0/alpha.phase1" master-only-reading:0

on processor 0 have masterSize:696976 and localSize:696976

on processor 0 after waiting: have masterSize:696976 and localSize:696976
Opening cached dictionary:"/home/ariedinger/uni/gimap/openfoam/03wiki3weeksSeries/day11/02codeStreamFieldInitialization/codeStream_INIT/elliptical_IC/dynamicCode/platforms/linux64GccDPInt32Opt/lib/libcodeStream_df3a5a6818c25fad4ac9515432e1b46df46e3b2a.so"
codeStream : dictionary:"/home/ariedinger/uni/gimap/openfoam/03wiki3weeksSeries/day11/02codeStreamFieldInitialization/codeStream_INIT/elliptical_IC/0/alpha.phase1" master-only-reading:0
Selecting incompressible transport model Newtonian
Selecting incompressible transport model Newtonian
No phase change: phaseChangeProperties not found
Selecting phaseChange model none
Selecting turbulence model type laminar
Selecting laminar stress model Stokes

Reading g

Reading hRef
Calculating field g.h

No MRF models present

No fvModels present
No fvConstraints present
DICPCG:  Solving for pcorr, Initial residual = 0, Final residual = 0, No Iterations 0
DICPCG:  Solving for pcorr, Initial residual = 0, Final residual = 0, No Iterations 0
time step continuity errors : sum local = 0, global = 0, cumulative = 0
Courant Number mean: 0 max: 0

Starting time loop

--> FOAM Warning : 
    From function bool Foam::functionObjectList::read()
    in file db/functionObjects/functionObjectList/functionObjectList.C at line 853
    Caught FatalError 
--> FOAM FATAL ERROR: 
Unknown function type fieldMinMax

Valid functions are : 

58
(
CourantNo
Lambda2
MachNo
PecletNo
Q
XiReactionRate
add
age
blendingFactor
comfort
components
cylindrical
ddt
div
divide
enstrophy
fieldAverage
fieldCoordinateSystemTransform
fieldValueDelta
flowType
grad
histogram
interfaceHeight
log
mag
magSqr
multiply
nearWallFields
patchProbes
pressure
probes
processorField
psiReactionThermoMoleFractions
randomise
readFields
regionSizeDistribution
rhoReactionThermoMoleFractions
scale
sets
shearStress
streamFunction
streamlines
subtract
surfaceFieldValue
surfaceInterpolate
surfaces
totalEnthalpy
turbulenceFields
turbulenceIntensity
uniform
volFieldValue
vorticity
wallHeatFlux
wallHeatTransferCoeff
wallShearStress
writeCellCentres
writeCellVolumes
yPlus
)



    From function static Foam::autoPtr<Foam::functionObject> Foam::functionObject::New(const Foam::word&, const Foam::Time&, const Foam::dictionary&)
    in file db/functionObjects/functionObject/functionObject.C at line 101.

Courant Number mean: 0 max: 0
Interface Courant Number mean: 0 max: 0
deltaT = 0.00011904762
Time = 0.000119048

smoothSolver:  Solving for alpha.phase1, Initial residual = 0, Final residual = 0, No Iterations 0
Phase-1 volume fraction = 0.142  Min(alpha.phase1) = 0  Max(alpha.phase1) = 1
MULES: Correcting alpha.phase1
MULES: Correcting alpha.phase1
Phase-1 volume fraction = 0.142  Min(alpha.phase1) = 0  Max(alpha.phase1) = 1
smoothSolver:  Solving for Ux, Initial residual = 1, Final residual = 5.7385039e-13, No Iterations 1
smoothSolver:  Solving for Uy, Initial residual = 1, Final residual = 5.058901e-13, No Iterations 1
DICPCG:  Solving for p_rgh, Initial residual = 1, Final residual = 0.047033179, No Iterations 2
DICPCG:  Solving for p_rgh, Initial residual = 0.02308806, Final residual = 0.00096146485, No Iterations 25
time step continuity errors : sum local = 4.5013606e-06, global = -1.3068508e-21, cumulative = -1.3068508e-21
DICPCG:  Solving for p_rgh, Initial residual = 0.00098776384, Final residual = 4.4230863e-05, No Iterations 24
DICPCG:  Solving for p_rgh, Initial residual = 4.9350372e-05, Final residual = 2.0220752e-06, No Iterations 119
time step continuity errors : sum local = 9.2115399e-09, global = -5.2348909e-21, cumulative = -6.5417418e-21
DICPCG:  Solving for p_rgh, Initial residual = 2.0231205e-06, Final residual = 7.8381589e-07, No Iterations 6
DICPCG:  Solving for p_rgh, Initial residual = 7.8411333e-07, Final residual = 7.8411333e-07, No Iterations 0
time step continuity errors : sum local = 3.570183e-09, global = -6.3669057e-21, cumulative = -1.2908647e-20
ExecutionTime = 0.35 s  ClockTime = 13 s

Courant Number mean: 0.0014697601 max: 0.080668058
Interface Courant Number mean: 0 max: 0
deltaT = 0.00014115646
Time = 0.000260204

smoothSolver:  Solving for alpha.phase1, Initial residual = 0.00093407789, Final residual = 1.1173947e-11, No Iterations 2
Phase-1 volume fraction = 0.142  Min(alpha.phase1) = 4.805178e-249  Max(alpha.phase1) = 1
MULES: Correcting alpha.phase1
MULES: Correcting alpha.phase1
Phase-1 volume fraction = 0.142  Min(alpha.phase1) = -3.4479528e-08  Max(alpha.phase1) = 1
smoothSolver:  Solving for Ux, Initial residual = 0.35594717, Final residual = 1.2744612e-09, No Iterations 2
smoothSolver:  Solving for Uy, Initial residual = 0.36193159, Final residual = 1.2753719e-09, No Iterations 2
DICPCG:  Solving for p_rgh, Initial residual = 0.19927732, Final residual = 0.0096196879, No Iterations 10
DICPCG:  Solving for p_rgh, Initial residual = 0.0098375938, Final residual = 0.00043905408, No Iterations 27
time step continuity errors : sum local = 1.9366864e-06, global = -1.8103809e-21, cumulative = -1.4719028e-20
DICPCG:  Solving for p_rgh, Initial residual = 0.0046890105, Final residual = 0.00022805195, No Iterations 9
DICPCG:  Solving for p_rgh, Initial residual = 0.00024199876, Final residual = 1.1594023e-05, No Iterations 117
time step continuity errors : sum local = 4.8951374e-08, global = -1.9741054e-21, cumulative = -1.6693134e-20
DICPCG:  Solving for p_rgh, Initial residual = 0.00011371184, Final residual = 5.3755516e-06, No Iterations 10
DICPCG:  Solving for p_rgh, Initial residual = 5.3772669e-06, Final residual = 9.7723297e-07, No Iterations 16
time step continuity errors : sum local = 4.1716763e-09, global = -2.1777867e-22, cumulative = -1.6910912e-20
ExecutionTime = 0.47 s  ClockTime = 13 s

Courant Number mean: 0.0017922908 max: 0.08073276
Interface Courant Number mean: 0.00040749657 max: 0.08073276
deltaT = 0.00016792752
Time = 0.000428132

smoothSolver:  Solving for alpha.phase1, Initial residual = 0.00099380842, Final residual = 1.0565109e-11, No Iterations 2
Phase-1 volume fraction = 0.142  Min(alpha.phase1) = -3.0021663e-17  Max(alpha.phase1) = 1
MULES: Correcting alpha.phase1
MULES: Correcting alpha.phase1
Phase-1 volume fraction = 0.142  Min(alpha.phase1) = -9.5033856e-08  Max(alpha.phase1) = 1
smoothSolver:  Solving for Ux, Initial residual = 0.20479715, Final residual = 4.9524036e-10, No Iterations 2
smoothSolver:  Solving for Uy, Initial residual = 0.21854867, Final residual = 1.2838809e-09, No Iterations 2
DICPCG:  Solving for p_rgh, Initial residual = 0.12978142, Final residual = 0.0041728915, No Iterations 3
DICPCG:  Solving for p_rgh, Initial residual = 0.0044710188, Final residual = 0.00017657329, No Iterations 23
time step continuity errors : sum local = 8.6019325e-07, global = -5.9934305e-21, cumulative = -2.2904343e-20
DICPCG:  Solving for p_rgh, Initial residual = 0.0021225358, Final residual = 0.0001009277, No Iterations 6
DICPCG:  Solving for p_rgh, Initial residual = 0.00010332233, Final residual = 4.9714086e-06, No Iterations 51
time step continuity errors : sum local = 2.6802216e-08, global = 2.9441042e-22, cumulative = -2.2609933e-20
DICPCG:  Solving for p_rgh, Initial residual = 7.0769083e-05, Final residual = 3.3828416e-06, No Iterations 10
DICPCG:  Solving for p_rgh, Initial residual = 3.9314309e-06, Final residual = 9.8446571e-07, No Iterations 110
time step continuity errors : sum local = 4.6984908e-09, global = -4.1041436e-21, cumulative = -2.6714076e-20
ExecutionTime = 0.59 s  ClockTime = 13 s

Courant Number mean: 0.002211648 max: 0.086454624
Interface Courant Number mean: 0.00052469903 max: 0.086454624
deltaT = 0.00019941393
Time = 0.000627546

smoothSolver:  Solving for alpha.phase1, Initial residual = 0.0011113276, Final residual = 1.8448675e-11, No Iterations 2
Phase-1 volume fraction = 0.142  Min(alpha.phase1) = -9.1779292e-13  Max(alpha.phase1) = 1
MULES: Correcting alpha.phase1
MULES: Correcting alpha.phase1
Phase-1 volume fraction = 0.142  Min(alpha.phase1) = -2.1266453e-06  Max(alpha.phase1) = 1
smoothSolver:  Solving for Ux, Initial residual = 0.14747054, Final residual = 3.4169345e-09, No Iterations 2
smoothSolver:  Solving for Uy, Initial residual = 0.15554531, Final residual = 4.1219006e-09, No Iterations 2
DICPCG:  Solving for p_rgh, Initial residual = 0.14091728, Final residual = 0.0060484758, No Iterations 2
DICPCG:  Solving for p_rgh, Initial residual = 0.0066184085, Final residual = 0.00027882129, No Iterations 14
time step continuity errors : sum local = 1.4118918e-06, global = 2.1917783e-21, cumulative = -2.4522298e-20
DICPCG:  Solving for p_rgh, Initial residual = 0.0021435229, Final residual = 0.00010586964, No Iterations 9
DICPCG:  Solving for p_rgh, Initial residual = 0.00010654474, Final residual = 5.2581651e-06, No Iterations 54
time step continuity errors : sum local = 3.0360951e-08, global = 5.0587961e-21, cumulative = -1.9463502e-20
DICPCG:  Solving for p_rgh, Initial residual = 9.4305866e-05, Final residual = 4.6526527e-06, No Iterations 10
DICPCG:  Solving for p_rgh, Initial residual = 5.2523137e-06, Final residual = 9.9818087e-07, No Iterations 92
time step continuity errors : sum local = 5.0842466e-09, global = 2.3032115e-21, cumulative = -1.716029e-20
ExecutionTime = 0.71 s  ClockTime = 14 s

Courant Number mean: 0.0027745069 max: 0.097979899
Interface Courant Number mean: 0.00060743035 max: 0.097979899
deltaT = 0.00023431136
Time = 0.000861857

smoothSolver:  Solving for alpha.phase1, Initial residual = 0.0012555052, Final residual = 4.28306e-11, No Iterations 2
Phase-1 volume fraction = 0.142  Min(alpha.phase1) = -7.3909959e-10  Max(alpha.phase1) = 1
MULES: Correcting alpha.phase1
MULES: Correcting alpha.phase1
Phase-1 volume fraction = 0.142  Min(alpha.phase1) = -7.4396115e-07  Max(alpha.phase1) = 1
smoothSolver:  Solving for Ux, Initial residual = 0.11252682, Final residual = 6.2514743e-09, No Iterations 2
smoothSolver:  Solving for Uy, Initial residual = 0.11819157, Final residual = 8.5556399e-09, No Iterations 2
DICPCG:  Solving for p_rgh, Initial residual = 0.16849411, Final residual = 0.006525459, No Iterations 2
DICPCG:  Solving for p_rgh, Initial residual = 0.0072309627, Final residual = 0.00033551078, No Iterations 13
time step continuity errors : sum local = 1.766855e-06, global = -1.5321841e-21, cumulative = -1.8692474e-20
DICPCG:  Solving for p_rgh, Initial residual = 0.0027596362, Final residual = 0.00013301991, No Iterations 12
DICPCG:  Solving for p_rgh, Initial residual = 0.00013383903, Final residual = 6.4776541e-06, No Iterations 44
time step continuity errors : sum local = 3.4302111e-08, global = -5.7708588e-21, cumulative = -2.4463333e-20
DICPCG:  Solving for p_rgh, Initial residual = 0.00012131724, Final residual = 5.6906285e-06, No Iterations 9
DICPCG:  Solving for p_rgh, Initial residual = 5.723252e-06, Final residual = 9.9558556e-07, No Iterations 35
time step continuity errors : sum local = 5.2587615e-09, global = 2.6871894e-21, cumulative = -2.1776144e-20
ExecutionTime = 0.81 s  ClockTime = 14 s

Courant Number mean: 0.003421869 max: 0.12251799
Interface Courant Number mean: 0.00072600099 max: 0.12251799
deltaT = 0.00027691343
Time = 0.00113877

smoothSolver:  Solving for alpha.phase1, Initial residual = 0.0013908709, Final residual = 1.2874521e-10, No Iterations 2
Phase-1 volume fraction = 0.142  Min(alpha.phase1) = -7.1777681e-10  Max(alpha.phase1) = 1
MULES: Correcting alpha.phase1
MULES: Correcting alpha.phase1
Phase-1 volume fraction = 0.142  Min(alpha.phase1) = -1.8826367e-06  Max(alpha.phase1) = 1
smoothSolver:  Solving for Ux, Initial residual = 0.091087163, Final residual = 8.0653087e-09, No Iterations 2
smoothSolver:  Solving for Uy, Initial residual = 0.092836771, Final residual = 1.3406098e-08, No Iterations 2
DICPCG:  Solving for p_rgh, Initial residual = 0.20549608, Final residual = 0.0072062089, No Iterations 2
DICPCG:  Solving for p_rgh, Initial residual = 0.0082093024, Final residual = 0.00037572299, No Iterations 13
time step continuity errors : sum local = 1.9881121e-06, global = -3.3969398e-21, cumulative = -2.5173084e-20
DICPCG:  Solving for p_rgh, Initial residual = 0.0038952288, Final residual = 0.0001775085, No Iterations 7
DICPCG:  Solving for p_rgh, Initial residual = 0.00017747184, Final residual = 8.380533e-06, No Iterations 48
time step continuity errors : sum local = 4.4360567e-08, global = -5.4003017e-21, cumulative = -3.0573385e-20
DICPCG:  Solving for p_rgh, Initial residual = 0.00019160937, Final residual = 9.2009344e-06, No Iterations 9
DICPCG:  Solving for p_rgh, Initial residual = 9.2063328e-06, Final residual = 9.5481788e-07, No Iterations 37
time step continuity errors : sum local = 5.2025971e-09, global = -2.061077e-21, cumulative = -3.2634462e-20
ExecutionTime = 0.91 s  ClockTime = 14 s

Courant Number mean: 0.0041755675 max: 0.15731239
Interface Courant Number mean: 0.00089516098 max: 0.15731239
deltaT = 0.00032819369
Time = 0.00146696

smoothSolver:  Solving for alpha.phase1, Initial residual = 0.0014751528, Final residual = 3.962261e-10, No Iterations 2
Phase-1 volume fraction = 0.142  Min(alpha.phase1) = -6.8596205e-10  Max(alpha.phase1) = 1
MULES: Correcting alpha.phase1
MULES: Correcting alpha.phase1
Phase-1 volume fraction = 0.142  Min(alpha.phase1) = -3.07155e-06  Max(alpha.phase1) = 1.0000001
smoothSolver:  Solving for Ux, Initial residual = 0.077477626, Final residual = 2.0850985e-08, No Iterations 2
smoothSolver:  Solving for Uy, Initial residual = 0.078081639, Final residual = 4.3692948e-08, No Iterations 2
DICPCG:  Solving for p_rgh, Initial residual = 0.26855569, Final residual = 0.0091590398, No Iterations 2
DICPCG:  Solving for p_rgh, Initial residual = 0.010819632, Final residual = 0.00052274368, No Iterations 11
time step continuity errors : sum local = 2.6328233e-06, global = 1.5138323e-20, cumulative = -1.7496139e-20
DICPCG:  Solving for p_rgh, Initial residual = 0.0063260033, Final residual = 0.00028859026, No Iterations 8
DICPCG:  Solving for p_rgh, Initial residual = 0.00028832987, Final residual = 1.3875801e-05, No Iterations 49
time step continuity errors : sum local = 7.2916633e-08, global = -2.0122195e-21, cumulative = -1.9508359e-20
DICPCG:  Solving for p_rgh, Initial residual = 0.00030033402, Final residual = 1.4073245e-05, No Iterations 11
DICPCG:  Solving for p_rgh, Initial residual = 1.4537025e-05, Final residual = 8.0460507e-07, No Iterations 115
time step continuity errors : sum local = 4.0559489e-09, global = -2.9963507e-21, cumulative = -2.2504709e-20
ExecutionTime = 1.04 s  ClockTime = 14 s

Courant Number mean: 0.0050723306 max: 0.19127825
Interface Courant Number mean: 0.0009946874 max: 0.19127825
deltaT = 0.00038786527
Time = 0.00185483

smoothSolver:  Solving for alpha.phase1, Initial residual = 0.0014989482, Final residual = 9.8098675e-10, No Iterations 2
Phase-1 volume fraction = 0.142  Min(alpha.phase1) = -6.5064247e-10  Max(alpha.phase1) = 1
MULES: Correcting alpha.phase1
MULES: Correcting alpha.phase1
Phase-1 volume fraction = 0.142  Min(alpha.phase1) = -4.0026849e-06  Max(alpha.phase1) = 1
smoothSolver:  Solving for Ux, Initial residual = 0.080521408, Final residual = 6.6018576e-08, No Iterations 2
smoothSolver:  Solving for Uy, Initial residual = 0.099566252, Final residual = 1.1821567e-07, No Iterations 2
DICPCG:  Solving for p_rgh, Initial residual = 0.29558916, Final residual = 0.0099882335, No Iterations 2
DICPCG:  Solving for p_rgh, Initial residual = 0.0094563577, Final residual = 0.00042808675, No Iterations 13
time step continuity errors : sum local = 3.124759e-06, global = -2.7334905e-21, cumulative = -2.52382e-20
DICPCG:  Solving for p_rgh, Initial residual = 0.0075679598, Final residual = 0.00031951084, No Iterations 8
DICPCG:  Solving for p_rgh, Initial residual = 0.00031957008, Final residual = 1.5843321e-05, No Iterations 20
time step continuity errors : sum local = 1.2467052e-07, global = -7.2420539e-21, cumulative = -3.2480254e-20
DICPCG:  Solving for p_rgh, Initial residual = 0.00036507066, Final residual = 1.8201955e-05, No Iterations 11
DICPCG:  Solving for p_rgh, Initial residual = 1.9174726e-05, Final residual = 9.1922788e-07, No Iterations 116
time step continuity errors : sum local = 6.7049672e-09, global = -9.0660167e-21, cumulative = -4.1546271e-20
ExecutionTime = 1.15 s  ClockTime = 14 s

Courant Number mean: 0.0061429962 max: 0.22744398
Interface Courant Number mean: 0.0010925685 max: 0.22744398
deltaT = 0.00045250948
Time = 0.00230734

smoothSolver:  Solving for alpha.phase1, Initial residual = 0.0014609903, Final residual = 1.9719013e-09, No Iterations 2
Phase-1 volume fraction = 0.142  Min(alpha.phase1) = -5.3306859e-09  Max(alpha.phase1) = 1
MULES: Correcting alpha.phase1
MULES: Correcting alpha.phase1
Phase-1 volume fraction = 0.142  Min(alpha.phase1) = -4.5179596e-07  Max(alpha.phase1) = 1
smoothSolver:  Solving for Ux, Initial residual = 0.10652346, Final residual = 1.4949637e-07, No Iterations 2
smoothSolver:  Solving for Uy, Initial residual = 0.14101424, Final residual = 2.5798039e-07, No Iterations 2
DICPCG:  Solving for p_rgh, Initial residual = 0.24088694, Final residual = 0.0081110246, No Iterations 2
DICPCG:  Solving for p_rgh, Initial residual = 0.0074659694, Final residual = 0.00036908169, No Iterations 21
time step continuity errors : sum local = 4.0220267e-06, global = -6.7083493e-21, cumulative = -4.825462e-20
DICPCG:  Solving for p_rgh, Initial residual = 0.0072848243, Final residual = 0.00033104716, No Iterations 8
DICPCG:  Solving for p_rgh, Initial residual = 0.00033123426, Final residual = 1.4483831e-05, No Iterations 21
time step continuity errors : sum local = 1.5790236e-07, global = 1.5840556e-21, cumulative = -4.6670564e-20
DICPCG:  Solving for p_rgh, Initial residual = 0.00039713319, Final residual = 1.6811805e-05, No Iterations 8
DICPCG:  Solving for p_rgh, Initial residual = 1.6825834e-05, Final residual = 9.3682566e-07, No Iterations 38
time step continuity errors : sum local = 1.1137943e-08, global = -6.9882472e-21, cumulative = -5.3658812e-20
ExecutionTime = 1.25 s  ClockTime = 14 s

Courant Number mean: 0.0072612284 max: 0.2549515
Interface Courant Number mean: 0.0012530679 max: 0.2549515
deltaT = 0.00051284408
Time = 0.00282018

smoothSolver:  Solving for alpha.phase1, Initial residual = 0.001321435, Final residual = 2.9822929e-09, No Iterations 2
Phase-1 volume fraction = 0.142  Min(alpha.phase1) = -5.2086709e-09  Max(alpha.phase1) = 1
MULES: Correcting alpha.phase1
MULES: Correcting alpha.phase1
Phase-1 volume fraction = 0.142  Min(alpha.phase1) = -1.9374081e-07  Max(alpha.phase1) = 1
smoothSolver:  Solving for Ux, Initial residual = 0.13960146, Final residual = 2.0580882e-07, No Iterations 2
smoothSolver:  Solving for Uy, Initial residual = 0.18167074, Final residual = 3.4544765e-07, No Iterations 2
DICPCG:  Solving for p_rgh, Initial residual = 0.16721659, Final residual = 0.005438944, No Iterations 2
DICPCG:  Solving for p_rgh, Initial residual = 0.0051474905, Final residual = 0.00025193295, No Iterations 22
time step continuity errors : sum local = 3.7125258e-06, global = 2.2056449e-21, cumulative = -5.1453167e-20
DICPCG:  Solving for p_rgh, Initial residual = 0.0061260373, Final residual = 0.00030192258, No Iterations 5
DICPCG:  Solving for p_rgh, Initial residual = 0.00030232045, Final residual = 1.4909128e-05, No Iterations 21
time step continuity errors : sum local = 2.2134249e-07, global = -7.2913612e-21, cumulative = -5.8744528e-20
DICPCG:  Solving for p_rgh, Initial residual = 0.00034362631, Final residual = 1.232305e-05, No Iterations 9
DICPCG:  Solving for p_rgh, Initial residual = 1.2500327e-05, Final residual = 9.9144641e-07, No Iterations 43
time step continuity errors : sum local = 1.6764331e-08, global = 3.7929001e-21, cumulative = -5.4951628e-20
ExecutionTime = 1.34 s  ClockTime = 14 s

Courant Number mean: 0.0084133221 max: 0.26667421
Interface Courant Number mean: 0.0013965231 max: 0.26539518
deltaT = 0.0005983181
Time = 0.0034185

smoothSolver:  Solving for alpha.phase1, Initial residual = 0.0014241078, Final residual = 4.5989396e-09, No Iterations 2
Phase-1 volume fraction = 0.142  Min(alpha.phase1) = -1.7562666e-09  Max(alpha.phase1) = 1
MULES: Correcting alpha.phase1
MULES: Correcting alpha.phase1
Phase-1 volume fraction = 0.142  Min(alpha.phase1) = -2.1561578e-07  Max(alpha.phase1) = 1
smoothSolver:  Solving for Ux, Initial residual = 0.16183388, Final residual = 2.7742401e-07, No Iterations 2
smoothSolver:  Solving for Uy, Initial residual = 0.19922189, Final residual = 4.3499411e-07, No Iterations 2
DICPCG:  Solving for p_rgh, Initial residual = 0.17365895, Final residual = 0.0058265815, No Iterations 2
DICPCG:  Solving for p_rgh, Initial residual = 0.0059049499, Final residual = 0.00026256731, No Iterations 22
time step continuity errors : sum local = 4.8942954e-06, global = -8.7485511e-21, cumulative = -6.3700179e-20
DICPCG:  Solving for p_rgh, Initial residual = 0.0070689697, Final residual = 0.00030329409, No Iterations 5
DICPCG:  Solving for p_rgh, Initial residual = 0.00030383508, Final residual = 1.3700693e-05, No Iterations 21
time step continuity errors : sum local = 2.5434386e-07, global = 1.2146866e-20, cumulative = -5.1553313e-20
DICPCG:  Solving for p_rgh, Initial residual = 0.00039828499, Final residual = 1.8048651e-05, No Iterations 9
DICPCG:  Solving for p_rgh, Initial residual = 1.8057411e-05, Final residual = 9.8429833e-07, No Iterations 48
time step continuity errors : sum local = 1.9234964e-08, global = 2.3100103e-20, cumulative = -2.845321e-20
ExecutionTime = 1.44 s  ClockTime = 14 s

Courant Number mean: 0.010318333 max: 0.32749921
Interface Courant Number mean: 0.0018286424 max: 0.29756631
deltaT = 0.00065814991
Time = 0.00407665

smoothSolver:  Solving for alpha.phase1, Initial residual = 0.0017628657, Final residual = 6.0184304e-09, No Iterations 2
Phase-1 volume fraction = 0.14199999  Min(alpha.phase1) = -5.2219317e-10  Max(alpha.phase1) = 1
MULES: Correcting alpha.phase1
MULES: Correcting alpha.phase1
Phase-1 volume fraction = 0.14199999  Min(alpha.phase1) = -5.9077124e-06  Max(alpha.phase1) = 1.0000001
smoothSolver:  Solving for Ux, Initial residual = 0.1587272, Final residual = 2.2045847e-07, No Iterations 2
smoothSolver:  Solving for Uy, Initial residual = 0.18140343, Final residual = 9.4224654e-07, No Iterations 2
DICPCG:  Solving for p_rgh, Initial residual = 0.25487359, Final residual = 0.0092653295, No Iterations 2
DICPCG:  Solving for p_rgh, Initial residual = 0.0092130376, Final residual = 0.00042190269, No Iterations 13
time step continuity errors : sum local = 8.4465711e-06, global = 9.1537338e-22, cumulative = -2.7537837e-20
DICPCG:  Solving for p_rgh, Initial residual = 0.01475019, Final residual = 0.00067587368, No Iterations 4
DICPCG:  Solving for p_rgh, Initial residual = 0.0006767246, Final residual = 3.0132381e-05, No Iterations 26
time step continuity errors : sum local = 6.2411102e-07, global = 1.6408848e-20, cumulative = -1.1128989e-20
DICPCG:  Solving for p_rgh, Initial residual = 0.0013432501, Final residual = 5.6300209e-05, No Iterations 4
DICPCG:  Solving for p_rgh, Initial residual = 5.7180938e-05, Final residual = 9.8496266e-07, No Iterations 123
time step continuity errors : sum local = 1.968939e-08, global = -1.3206505e-20, cumulative = -2.4335494e-20
ExecutionTime = 1.57 s  ClockTime = 14 s

Courant Number mean: 0.011945618 max: 0.36797928
Interface Courant Number mean: 0.0022242392 max: 0.36797928
deltaT = 0.00074041864
Time = 0.00481707

smoothSolver:  Solving for alpha.phase1, Initial residual = 0.002017556, Final residual = 7.5564791e-12, No Iterations 3
Phase-1 volume fraction = 0.14199999  Min(alpha.phase1) = -5.0229515e-10  Max(alpha.phase1) = 1
MULES: Correcting alpha.phase1
MULES: Correcting alpha.phase1
Phase-1 volume fraction = 0.14199999  Min(alpha.phase1) = -1.6337457e-05  Max(alpha.phase1) = 1.0000004
smoothSolver:  Solving for Ux, Initial residual = 0.14732215, Final residual = 2.8890016e-07, No Iterations 2
smoothSolver:  Solving for Uy, Initial residual = 0.15844139, Final residual = 1.0135854e-09, No Iterations 3
DICPCG:  Solving for p_rgh, Initial residual = 0.28719498, Final residual = 0.0087229752, No Iterations 2
DICPCG:  Solving for p_rgh, Initial residual = 0.0087439403, Final residual = 0.00033792219, No Iterations 11
time step continuity errors : sum local = 8.1930563e-06, global = 1.5417998e-20, cumulative = -8.9174955e-21
DICPCG:  Solving for p_rgh, Initial residual = 0.019480529, Final residual = 0.00087340162, No Iterations 4
DICPCG:  Solving for p_rgh, Initial residual = 0.00087506313, Final residual = 3.5628045e-05, No Iterations 25
time step continuity errors : sum local = 8.6937149e-07, global = 8.9868747e-21, cumulative = 6.937922e-23
DICPCG:  Solving for p_rgh, Initial residual = 0.0020583174, Final residual = 8.801339e-05, No Iterations 4
DICPCG:  Solving for p_rgh, Initial residual = 8.8293172e-05, Final residual = 8.719003e-07, No Iterations 124
time step continuity errors : sum local = 2.1005108e-08, global = -1.4116976e-20, cumulative = -1.4047597e-20
ExecutionTime = 1.69 s  ClockTime = 15 s

Courant Number mean: 0.014008068 max: 0.41993325
Interface Courant Number mean: 0.0027388285 max: 0.37093706
deltaT = 0.00086382175
Time = 0.00568089

smoothSolver:  Solving for alpha.phase1, Initial residual = 0.0021213075, Final residual = 2.4817614e-11, No Iterations 3
Phase-1 volume fraction = 0.14199999  Min(alpha.phase1) = -4.8159374e-10  Max(alpha.phase1) = 1
MULES: Correcting alpha.phase1
MULES: Correcting alpha.phase1
Phase-1 volume fraction = 0.14199999  Min(alpha.phase1) = -2.1999119e-05  Max(alpha.phase1) = 1.0000003
smoothSolver:  Solving for Ux, Initial residual = 0.1428781, Final residual = 4.886652e-07, No Iterations 2
smoothSolver:  Solving for Uy, Initial residual = 0.19366016, Final residual = 1.7910956e-09, No Iterations 3
DICPCG:  Solving for p_rgh, Initial residual = 0.24378419, Final residual = 0.0090706519, No Iterations 2
DICPCG:  Solving for p_rgh, Initial residual = 0.0089413026, Final residual = 0.00041403035, No Iterations 14
time step continuity errors : sum local = 1.3485202e-05, global = -2.5009376e-20, cumulative = -3.9056973e-20
DICPCG:  Solving for p_rgh, Initial residual = 0.015860455, Final residual = 0.00073666529, No Iterations 5
DICPCG:  Solving for p_rgh, Initial residual = 0.00073773772, Final residual = 3.6241746e-05, No Iterations 24
time step continuity errors : sum local = 1.2362744e-06, global = 8.5505223e-21, cumulative = -3.0506451e-20
DICPCG:  Solving for p_rgh, Initial residual = 0.001679203, Final residual = 8.1745537e-05, No Iterations 4
DICPCG:  Solving for p_rgh, Initial residual = 8.3167126e-05, Final residual = 9.808435e-07, No Iterations 121
time step continuity errors : sum local = 3.1872782e-08, global = -2.3100911e-20, cumulative = -5.3607362e-20
ExecutionTime = 1.82 s  ClockTime = 15 s

Courant Number mean: 0.016743292 max: 0.50530405
Interface Courant Number mean: 0.0031125645 max: 0.46279091
deltaT = 0.00086382175
Time = 0.00654471

smoothSolver:  Solving for alpha.phase1, Initial residual = 0.0019049349, Final residual = 2.1302937e-11, No Iterations 3
Phase-1 volume fraction = 0.14199999  Min(alpha.phase1) = -2.3087316e-08  Max(alpha.phase1) = 1
MULES: Correcting alpha.phase1
MULES: Correcting alpha.phase1
Phase-1 volume fraction = 0.14199999  Min(alpha.phase1) = -3.5814248e-05  Max(alpha.phase1) = 1.0000002
smoothSolver:  Solving for Ux, Initial residual = 0.14763787, Final residual = 4.8237658e-07, No Iterations 2
smoothSolver:  Solving for Uy, Initial residual = 0.20687977, Final residual = 8.9367716e-10, No Iterations 3
DICPCG:  Solving for p_rgh, Initial residual = 0.26947643, Final residual = 0.0097062405, No Iterations 2
DICPCG:  Solving for p_rgh, Initial residual = 0.010090615, Final residual = 0.00045699927, No Iterations 14
time step continuity errors : sum local = 1.356201e-05, global = 1.7102051e-20, cumulative = -3.6505311e-20
DICPCG:  Solving for p_rgh, Initial residual = 0.017038274, Final residual = 0.0008159615, No Iterations 7
DICPCG:  Solving for p_rgh, Initial residual = 0.00081658693, Final residual = 3.3712573e-05, No Iterations 20
time step continuity errors : sum local = 1.0420046e-06, global = 1.2934199e-20, cumulative = -2.3571112e-20
DICPCG:  Solving for p_rgh, Initial residual = 0.0018187991, Final residual = 9.0735568e-05, No Iterations 8
DICPCG:  Solving for p_rgh, Initial residual = 9.1984109e-05, Final residual = 8.8125799e-07, No Iterations 121
time step continuity errors : sum local = 2.6033189e-08, global = 3.3154727e-20, cumulative = 9.583615e-21
ExecutionTime = 1.93 s  ClockTime = 15 s

Courant Number mean: 0.016817556 max: 0.55157579
Interface Courant Number mean: 0.002886421 max: 0.51509804
deltaT = 0.00086382175
Time = 0.00740853

smoothSolver:  Solving for alpha.phase1, Initial residual = 0.0018225882, Final residual = 2.1699803e-11, No Iterations 3
Phase-1 volume fraction = 0.14199999  Min(alpha.phase1) = -7.6288432e-09  Max(alpha.phase1) = 1
MULES: Correcting alpha.phase1
MULES: Correcting alpha.phase1
Phase-1 volume fraction = 0.14199999  Min(alpha.phase1) = -3.5152418e-05  Max(alpha.phase1) = 1.0000004
smoothSolver:  Solving for Ux, Initial residual = 0.14768876, Final residual = 3.3132015e-07, No Iterations 2
smoothSolver:  Solving for Uy, Initial residual = 0.18177036, Final residual = 2.3365276e-09, No Iterations 3
DICPCG:  Solving for p_rgh, Initial residual = 0.28091497, Final residual = 0.0091772875, No Iterations 2
DICPCG:  Solving for p_rgh, Initial residual = 0.0092215121, Final residual = 0.00032667167, No Iterations 13
time step continuity errors : sum local = 9.3730264e-06, global = -4.0458549e-21, cumulative = 5.5377601e-21
DICPCG:  Solving for p_rgh, Initial residual = 0.017258704, Final residual = 0.00077419914, No Iterations 5
DICPCG:  Solving for p_rgh, Initial residual = 0.00077582042, Final residual = 3.8481699e-05, No Iterations 23
time step continuity errors : sum local = 1.0994594e-06, global = -3.6691821e-20, cumulative = -3.115406e-20
DICPCG:  Solving for p_rgh, Initial residual = 0.0019480353, Final residual = 9.3872092e-05, No Iterations 7
DICPCG:  Solving for p_rgh, Initial residual = 9.3958201e-05, Final residual = 9.9917074e-07, No Iterations 52
time step continuity errors : sum local = 3.1947241e-08, global = -2.1757262e-20, cumulative = -5.2911323e-20
ExecutionTime = 2.03 s  ClockTime = 15 s

Courant Number mean: 0.017213835 max: 0.50398095
Interface Courant Number mean: 0.0030146213 max: 0.47987674
deltaT = 0.00086382175
Time = 0.00827236

smoothSolver:  Solving for alpha.phase1, Initial residual = 0.0017546048, Final residual = 7.3440697e-11, No Iterations 3
Phase-1 volume fraction = 0.14199999  Min(alpha.phase1) = -5.3612789e-08  Max(alpha.phase1) = 1
MULES: Correcting alpha.phase1
MULES: Correcting alpha.phase1
Phase-1 volume fraction = 0.14199999  Min(alpha.phase1) = -6.6832057e-06  Max(alpha.phase1) = 1.0000005
smoothSolver:  Solving for Ux, Initial residual = 0.12995505, Final residual = 3.1691355e-07, No Iterations 2
smoothSolver:  Solving for Uy, Initial residual = 0.15463135, Final residual = 2.4813676e-09, No Iterations 3
DICPCG:  Solving for p_rgh, Initial residual = 0.22808955, Final residual = 0.0073709206, No Iterations 2
DICPCG:  Solving for p_rgh, Initial residual = 0.0078866183, Final residual = 0.00037025818, No Iterations 12
time step continuity errors : sum local = 8.76354e-06, global = -3.7372651e-21, cumulative = -5.6648588e-20
DICPCG:  Solving for p_rgh, Initial residual = 0.016582564, Final residual = 0.0007880817, No Iterations 6
DICPCG:  Solving for p_rgh, Initial residual = 0.00079012699, Final residual = 3.2235327e-05, No Iterations 26
time step continuity errors : sum local = 7.7461127e-07, global = 8.2802102e-21, cumulative = -4.8368378e-20
DICPCG:  Solving for p_rgh, Initial residual = 0.0019564921, Final residual = 7.686811e-05, No Iterations 22
DICPCG:  Solving for p_rgh, Initial residual = 7.7498523e-05, Final residual = 9.1775634e-07, No Iterations 118
time step continuity errors : sum local = 2.1588653e-08, global = 1.0008268e-20, cumulative = -3.8360109e-20
ExecutionTime = 2.15 s  ClockTime = 15 s

Courant Number mean: 0.018280068 max: 0.51113112
Interface Courant Number mean: 0.0035269095 max: 0.42052182
deltaT = 0.00086382175
Time = 0.00913618

smoothSolver:  Solving for alpha.phase1, Initial residual = 0.001776572, Final residual = 7.5750715e-11, No Iterations 3
Phase-1 volume fraction = 0.14199999  Min(alpha.phase1) = -5.2351386e-08  Max(alpha.phase1) = 1
MULES: Correcting alpha.phase1
MULES: Correcting alpha.phase1
Phase-1 volume fraction = 0.14199999  Min(alpha.phase1) = -6.4536581e-05  Max(alpha.phase1) = 1.0000011
smoothSolver:  Solving for Ux, Initial residual = 0.1094842, Final residual = 4.9195273e-07, No Iterations 2
smoothSolver:  Solving for Uy, Initial residual = 0.13168193, Final residual = 1.7908234e-09, No Iterations 3
DICPCG:  Solving for p_rgh, Initial residual = 0.2854463, Final residual = 0.011981092, No Iterations 2
DICPCG:  Solving for p_rgh, Initial residual = 0.012889682, Final residual = 0.00054829254, No Iterations 22
time step continuity errors : sum local = 1.0819327e-05, global = -3.6945681e-20, cumulative = -7.530579e-20
DICPCG:  Solving for p_rgh, Initial residual = 0.016880034, Final residual = 0.00074840735, No Iterations 10
DICPCG:  Solving for p_rgh, Initial residual = 0.00075038998, Final residual = 3.4616834e-05, No Iterations 23
time step continuity errors : sum local = 6.8442928e-07, global = 2.4781273e-21, cumulative = -7.2827663e-20
DICPCG:  Solving for p_rgh, Initial residual = 0.0020459672, Final residual = 9.3228329e-05, No Iterations 15
DICPCG:  Solving for p_rgh, Initial residual = 9.3492856e-05, Final residual = 9.3080844e-07, No Iterations 45
time step continuity errors : sum local = 1.8107242e-08, global = 4.2281361e-21, cumulative = -6.8599527e-20
ExecutionTime = 2.25 s  ClockTime = 15 s

Courant Number mean: 0.018805441 max: 0.41901183
Interface Courant Number mean: 0.0035294208 max: 0.41901183
deltaT = 0.00086382175
Time = 0.01

smoothSolver:  Solving for alpha.phase1, Initial residual = 0.0018081508, Final residual = 5.2547739e-11, No Iterations 3
Phase-1 volume fraction = 0.14199999  Min(alpha.phase1) = -1.1102219e-07  Max(alpha.phase1) = 1
MULES: Correcting alpha.phase1
MULES: Correcting alpha.phase1
Phase-1 volume fraction = 0.14199999  Min(alpha.phase1) = -8.3624286e-07  Max(alpha.phase1) = 1.0000003
smoothSolver:  Solving for Ux, Initial residual = 0.093351764, Final residual = 4.5124143e-07, No Iterations 2
smoothSolver:  Solving for Uy, Initial residual = 0.10875699, Final residual = 5.6162928e-07, No Iterations 2
DICPCG:  Solving for p_rgh, Initial residual = 0.26093613, Final residual = 0.010485901, No Iterations 2
DICPCG:  Solving for p_rgh, Initial residual = 0.010647218, Final residual = 0.00051506737, No Iterations 14
time step continuity errors : sum local = 1.0053608e-05, global = -1.3454347e-21, cumulative = -6.9944962e-20
DICPCG:  Solving for p_rgh, Initial residual = 0.014863459, Final residual = 0.00065755755, No Iterations 8
DICPCG:  Solving for p_rgh, Initial residual = 0.0006576133, Final residual = 2.8322074e-05, No Iterations 20
time step continuity errors : sum local = 5.8331465e-07, global = 5.0156004e-23, cumulative = -6.9894806e-20
DICPCG:  Solving for p_rgh, Initial residual = 0.0014194273, Final residual = 6.8579855e-05, No Iterations 3
DICPCG:  Solving for p_rgh, Initial residual = 6.9730335e-05, Final residual = 9.6826084e-07, No Iterations 122
time step continuity errors : sum local = 1.8874409e-08, global = -5.0178992e-21, cumulative = -7.4912705e-20
ExecutionTime = 2.45 s  ClockTime = 15 s

Courant Number mean: 0.019567143 max: 0.43490594
Interface Courant Number mean: 0.0034076744 max: 0.43490594
deltaT = 0.001
Time = 0.011

smoothSolver:  Solving for alpha.phase1, Initial residual = 0.0020971801, Final residual = 1.8991975e-10, No Iterations 3
Phase-1 volume fraction = 0.14199999  Min(alpha.phase1) = -4.9576755e-08  Max(alpha.phase1) = 1
MULES: Correcting alpha.phase1
MULES: Correcting alpha.phase1
Phase-1 volume fraction = 0.14199999  Min(alpha.phase1) = -0.00010145128  Max(alpha.phase1) = 1.0000001
smoothSolver:  Solving for Ux, Initial residual = 0.10309145, Final residual = 9.4526122e-07, No Iterations 2
smoothSolver:  Solving for Uy, Initial residual = 0.11978525, Final residual = 1.739364e-08, No Iterations 3
DICPCG:  Solving for p_rgh, Initial residual = 0.27381825, Final residual = 0.011071379, No Iterations 2
DICPCG:  Solving for p_rgh, Initial residual = 0.011277958, Final residual = 0.00055856038, No Iterations 12
time step continuity errors : sum local = 1.3249333e-05, global = -1.8382918e-20, cumulative = -9.3295623e-20
DICPCG:  Solving for p_rgh, Initial residual = 0.024330664, Final residual = 0.0012107579, No Iterations 3
DICPCG:  Solving for p_rgh, Initial residual = 0.001215502, Final residual = 5.2187692e-05, No Iterations 26
time step continuity errors : sum local = 1.2377182e-06, global = 2.1681873e-20, cumulative = -7.161375e-20
DICPCG:  Solving for p_rgh, Initial residual = 0.0030838935, Final residual = 0.00014653229, No Iterations 6
DICPCG:  Solving for p_rgh, Initial residual = 0.00014688625, Final residual = 9.5699124e-07, No Iterations 124
time step continuity errors : sum local = 2.2501456e-08, global = 3.6892758e-20, cumulative = -3.4720992e-20
ExecutionTime = 2.57 s  ClockTime = 15 s

Courant Number mean: 0.023336859 max: 0.62563779
Interface Courant Number mean: 0.0039727368 max: 0.47842083
deltaT = 0.001125
Time = 0.012125

smoothSolver:  Solving for alpha.phase1, Initial residual = 0.0024023958, Final residual = 6.7593406e-10, No Iterations 3
Phase-1 volume fraction = 0.14199999  Min(alpha.phase1) = -3.7167015e-07  Max(alpha.phase1) = 1
MULES: Correcting alpha.phase1
MULES: Correcting alpha.phase1
Phase-1 volume fraction = 0.14199999  Min(alpha.phase1) = -0.00019311008  Max(alpha.phase1) = 1.0000099
smoothSolver:  Solving for Ux, Initial residual = 0.10971716, Final residual = 7.5282325e-09, No Iterations 3
smoothSolver:  Solving for Uy, Initial residual = 0.13460487, Final residual = 7.0602283e-08, No Iterations 3
DICPCG:  Solving for p_rgh, Initial residual = 0.37331235, Final residual = 0.018443277, No Iterations 2
DICPCG:  Solving for p_rgh, Initial residual = 0.020860138, Final residual = 0.00093139656, No Iterations 14
time step continuity errors : sum local = 1.851495e-05, global = 2.3974315e-20, cumulative = -1.0746677e-20
DICPCG:  Solving for p_rgh, Initial residual = 0.049987217, Final residual = 0.0023908353, No Iterations 6
DICPCG:  Solving for p_rgh, Initial residual = 0.0024370705, Final residual = 9.9823347e-05, No Iterations 26
time step continuity errors : sum local = 1.9269078e-06, global = 1.3534925e-20, cumulative = 2.7882478e-21
DICPCG:  Solving for p_rgh, Initial residual = 0.0084417861, Final residual = 0.00039411123, No Iterations 18
DICPCG:  Solving for p_rgh, Initial residual = 0.0003960974, Final residual = 7.6884049e-07, No Iterations 125
time step continuity errors : sum local = 1.4559642e-08, global = 1.12379e-20, cumulative = 1.4026148e-20
ExecutionTime = 2.69 s  ClockTime = 16 s

Courant Number mean: 0.026590596 max: 0.54155038
Interface Courant Number mean: 0.0051133991 max: 0.54155038
deltaT = 0.0013125
Time = 0.0134375

smoothSolver:  Solving for alpha.phase1, Initial residual = 0.0029166766, Final residual = 7.3314943e-10, No Iterations 3
Phase-1 volume fraction = 0.14199999  Min(alpha.phase1) = -3.7281297e-11  Max(alpha.phase1) = 1
MULES: Correcting alpha.phase1
MULES: Correcting alpha.phase1
Phase-1 volume fraction = 0.14199999  Min(alpha.phase1) = -0.00049536732  Max(alpha.phase1) = 1.0000011
smoothSolver:  Solving for Ux, Initial residual = 0.10699159, Final residual = 1.3214154e-08, No Iterations 3
smoothSolver:  Solving for Uy, Initial residual = 0.15114413, Final residual = 1.5741177e-08, No Iterations 3
DICPCG:  Solving for p_rgh, Initial residual = 0.46618049, Final residual = 0.020401951, No Iterations 2
DICPCG:  Solving for p_rgh, Initial residual = 0.01948323, Final residual = 0.00079202677, No Iterations 13
time step continuity errors : sum local = 2.1026116e-05, global = 3.2822461e-20, cumulative = 4.6848609e-20
DICPCG:  Solving for p_rgh, Initial residual = 0.042752483, Final residual = 0.0021192077, No Iterations 5
DICPCG:  Solving for p_rgh, Initial residual = 0.0021485936, Final residual = 9.6385896e-05, No Iterations 22
time step continuity errors : sum local = 2.4852756e-06, global = 1.8052284e-20, cumulative = 6.4900893e-20
DICPCG:  Solving for p_rgh, Initial residual = 0.005933821, Final residual = 0.00025470983, No Iterations 5
DICPCG:  Solving for p_rgh, Initial residual = 0.00025498277, Final residual = 9.931139e-07, No Iterations 78
time step continuity errors : sum local = 2.9185481e-08, global = -3.0441038e-20, cumulative = 3.4459855e-20
ExecutionTime = 2.8 s  ClockTime = 16 s

Courant Number mean: 0.029985237 max: 0.71099853
Interface Courant Number mean: 0.0047356068 max: 0.56695713
deltaT = 0.0013125
Time = 0.01475

smoothSolver:  Solving for alpha.phase1, Initial residual = 0.0025804193, Final residual = 6.840643e-10, No Iterations 3
Phase-1 volume fraction = 0.14199999  Min(alpha.phase1) = -3.9828217e-13  Max(alpha.phase1) = 1
MULES: Correcting alpha.phase1
MULES: Correcting alpha.phase1
Phase-1 volume fraction = 0.14199999  Min(alpha.phase1) = -9.9430922e-05  Max(alpha.phase1) = 1.0000023
smoothSolver:  Solving for Ux, Initial residual = 0.10438122, Final residual = 1.5823626e-08, No Iterations 3
smoothSolver:  Solving for Uy, Initial residual = 0.14115945, Final residual = 1.1564997e-08, No Iterations 3
DICPCG:  Solving for p_rgh, Initial residual = 0.30221911, Final residual = 0.014704429, No Iterations 2
DICPCG:  Solving for p_rgh, Initial residual = 0.01431571, Final residual = 0.00058322837, No Iterations 21
time step continuity errors : sum local = 1.8496844e-05, global = -2.4033395e-20, cumulative = 1.0426459e-20
DICPCG:  Solving for p_rgh, Initial residual = 0.029991591, Final residual = 0.0013542423, No Iterations 9
DICPCG:  Solving for p_rgh, Initial residual = 0.001362317, Final residual = 6.6571184e-05, No Iterations 25
time step continuity errors : sum local = 2.1113688e-06, global = -4.3089294e-20, cumulative = -3.2662835e-20
DICPCG:  Solving for p_rgh, Initial residual = 0.004152031, Final residual = 0.00019711965, No Iterations 10
DICPCG:  Solving for p_rgh, Initial residual = 0.00019799824, Final residual = 8.5616213e-07, No Iterations 123
time step continuity errors : sum local = 2.6757196e-08, global = -3.8334213e-21, cumulative = -3.6496256e-20
ExecutionTime = 2.93 s  ClockTime = 16 s

Courant Number mean: 0.031008016 max: 0.87312136
Interface Courant Number mean: 0.0050455801 max: 0.63379777
deltaT = 0.0013125
Time = 0.0160625

smoothSolver:  Solving for alpha.phase1, Initial residual = 0.0026521755, Final residual = 6.9405115e-10, No Iterations 3
Phase-1 volume fraction = 0.14199999  Min(alpha.phase1) = -3.0116343e-11  Max(alpha.phase1) = 1
MULES: Correcting alpha.phase1
MULES: Correcting alpha.phase1
Phase-1 volume fraction = 0.14199999  Min(alpha.phase1) = -4.3702027e-07  Max(alpha.phase1) = 1.0000002
smoothSolver:  Solving for Ux, Initial residual = 0.10386237, Final residual = 9.1434734e-09, No Iterations 3
smoothSolver:  Solving for Uy, Initial residual = 0.13404338, Final residual = 1.4995276e-08, No Iterations 3
DICPCG:  Solving for p_rgh, Initial residual = 0.43923169, Final residual = 0.018083019, No Iterations 2
DICPCG:  Solving for p_rgh, Initial residual = 0.018882355, Final residual = 0.00078267182, No Iterations 13
time step continuity errors : sum local = 2.1369024e-05, global = 1.8513791e-20, cumulative = -1.7982465e-20
DICPCG:  Solving for p_rgh, Initial residual = 0.053726225, Final residual = 0.0020823726, No Iterations 5
DICPCG:  Solving for p_rgh, Initial residual = 0.0021186054, Final residual = 9.7911211e-05, No Iterations 23
time step continuity errors : sum local = 2.6230174e-06, global = 2.9915007e-20, cumulative = 1.1932542e-20
DICPCG:  Solving for p_rgh, Initial residual = 0.010111176, Final residual = 0.00047373392, No Iterations 6
DICPCG:  Solving for p_rgh, Initial residual = 0.00047660757, Final residual = 6.9969696e-07, No Iterations 129
time step continuity errors : sum local = 1.8296798e-08, global = -1.7261635e-20, cumulative = -5.3290932e-21
ExecutionTime = 3.05 s  ClockTime = 16 s

Courant Number mean: 0.031547816 max: 0.69664232
Interface Courant Number mean: 0.005749415 max: 0.69664232
deltaT = 0.0013125
Time = 0.017375

smoothSolver:  Solving for alpha.phase1, Initial residual = 0.0026042903, Final residual = 4.2375989e-10, No Iterations 3
Phase-1 volume fraction = 0.14199999  Min(alpha.phase1) = -2.9302011e-11  Max(alpha.phase1) = 1
MULES: Correcting alpha.phase1
MULES: Correcting alpha.phase1
Phase-1 volume fraction = 0.14199999  Min(alpha.phase1) = -1.1025847e-06  Max(alpha.phase1) = 1
smoothSolver:  Solving for Ux, Initial residual = 0.093506335, Final residual = 4.7735058e-09, No Iterations 3
smoothSolver:  Solving for Uy, Initial residual = 0.13157263, Final residual = 7.4027252e-09, No Iterations 3
DICPCG:  Solving for p_rgh, Initial residual = 0.37812165, Final residual = 0.016877862, No Iterations 2
DICPCG:  Solving for p_rgh, Initial residual = 0.016569613, Final residual = 0.0008158836, No Iterations 9
time step continuity errors : sum local = 2.3659191e-05, global = 7.1446523e-20, cumulative = 6.6117429e-20
DICPCG:  Solving for p_rgh, Initial residual = 0.03835601, Final residual = 0.0018904086, No Iterations 4
DICPCG:  Solving for p_rgh, Initial residual = 0.0019011893, Final residual = 9.4237975e-05, No Iterations 27
time step continuity errors : sum local = 2.7367894e-06, global = -7.6184129e-21, cumulative = 5.8499017e-20
DICPCG:  Solving for p_rgh, Initial residual = 0.0055259968, Final residual = 0.00019325776, No Iterations 3
DICPCG:  Solving for p_rgh, Initial residual = 0.00019441965, Final residual = 9.5621854e-07, No Iterations 110
time step continuity errors : sum local = 2.7783921e-08, global = -9.2721579e-21, cumulative = 4.9226859e-20
ExecutionTime = 3.16 s  ClockTime = 16 s

Courant Number mean: 0.032284895 max: 0.69021314
Interface Courant Number mean: 0.0058495309 max: 0.58137563
deltaT = 0.0013125
Time = 0.0186875

smoothSolver:  Solving for alpha.phase1, Initial residual = 0.0029382402, Final residual = 1.5186322e-09, No Iterations 3
Phase-1 volume fraction = 0.14199999  Min(alpha.phase1) = -2.8574993e-11  Max(alpha.phase1) = 1
MULES: Correcting alpha.phase1
MULES: Correcting alpha.phase1
Phase-1 volume fraction = 0.14199999  Min(alpha.phase1) = -1.61344e-06  Max(alpha.phase1) = 1
smoothSolver:  Solving for Ux, Initial residual = 0.088322957, Final residual = 1.2043775e-08, No Iterations 3
smoothSolver:  Solving for Uy, Initial residual = 0.11036341, Final residual = 2.9611195e-08, No Iterations 3
DICPCG:  Solving for p_rgh, Initial residual = 0.40260757, Final residual = 0.017285515, No Iterations 2
DICPCG:  Solving for p_rgh, Initial residual = 0.01848939, Final residual = 0.00074877248, No Iterations 13
time step continuity errors : sum local = 2.2096179e-05, global = 2.2643593e-20, cumulative = 7.1870451e-20
DICPCG:  Solving for p_rgh, Initial residual = 0.046105861, Final residual = 0.0019835027, No Iterations 5
DICPCG:  Solving for p_rgh, Initial residual = 0.0020223238, Final residual = 9.2604903e-05, No Iterations 24
time step continuity errors : sum local = 2.7324967e-06, global = -3.400562e-20, cumulative = 3.7864832e-20
DICPCG:  Solving for p_rgh, Initial residual = 0.0090205754, Final residual = 0.00044902792, No Iterations 5
DICPCG:  Solving for p_rgh, Initial residual = 0.00045136225, Final residual = 8.5946033e-07, No Iterations 133
time step continuity errors : sum local = 2.4453532e-08, global = -3.7495482e-20, cumulative = 3.6934978e-22
ExecutionTime = 3.29 s  ClockTime = 16 s

Courant Number mean: 0.033497403 max: 0.8242344
Interface Courant Number mean: 0.0054555386 max: 0.57008205
deltaT = 0.0013125
Time = 0.02

smoothSolver:  Solving for alpha.phase1, Initial residual = 0.0028985452, Final residual = 1.8492765e-09, No Iterations 3
Phase-1 volume fraction = 0.14199999  Min(alpha.phase1) = -2.8065102e-11  Max(alpha.phase1) = 1
MULES: Correcting alpha.phase1
MULES: Correcting alpha.phase1
Phase-1 volume fraction = 0.14199999  Min(alpha.phase1) = -5.0821479e-06  Max(alpha.phase1) = 1.0000011
smoothSolver:  Solving for Ux, Initial residual = 0.072298578, Final residual = 8.8233398e-09, No Iterations 3
smoothSolver:  Solving for Uy, Initial residual = 0.11526529, Final residual = 2.113757e-08, No Iterations 3
DICPCG:  Solving for p_rgh, Initial residual = 0.46616628, Final residual = 0.019806559, No Iterations 2
DICPCG:  Solving for p_rgh, Initial residual = 0.019033477, Final residual = 0.00093686844, No Iterations 19
time step continuity errors : sum local = 3.2094523e-05, global = 1.1620921e-20, cumulative = 1.1990271e-20
DICPCG:  Solving for p_rgh, Initial residual = 0.047696496, Final residual = 0.0022772498, No Iterations 5
DICPCG:  Solving for p_rgh, Initial residual = 0.0023287559, Final residual = 0.00010213303, No Iterations 28
time step continuity errors : sum local = 3.3214431e-06, global = 8.3044063e-20, cumulative = 9.5034334e-20
DICPCG:  Solving for p_rgh, Initial residual = 0.0083243784, Final residual = 0.00038389671, No Iterations 16
DICPCG:  Solving for p_rgh, Initial residual = 0.00038460939, Final residual = 9.5630368e-07, No Iterations 103
time step continuity errors : sum local = 3.1652527e-08, global = 6.9848094e-23, cumulative = 9.5104182e-20
ExecutionTime = 3.49 s  ClockTime = 16 s

Courant Number mean: 0.034206566 max: 0.80952884
Interface Courant Number mean: 0.0058552211 max: 0.80952884
deltaT = 0.0014285714
Time = 0.0214286

smoothSolver:  Solving for alpha.phase1, Initial residual = 0.0030734197, Final residual = 2.8280998e-09, No Iterations 3
Phase-1 volume fraction = 0.14199999  Min(alpha.phase1) = -1.9391402e-13  Max(alpha.phase1) = 1
MULES: Correcting alpha.phase1
MULES: Correcting alpha.phase1
Phase-1 volume fraction = 0.14199999  Min(alpha.phase1) = -2.2992681e-09  Max(alpha.phase1) = 1.0000001
smoothSolver:  Solving for Ux, Initial residual = 0.092381428, Final residual = 1.895731e-08, No Iterations 3
smoothSolver:  Solving for Uy, Initial residual = 0.11432, Final residual = 3.9966041e-08, No Iterations 3
DICPCG:  Solving for p_rgh, Initial residual = 0.39223144, Final residual = 0.01520151, No Iterations 2
DICPCG:  Solving for p_rgh, Initial residual = 0.015577384, Final residual = 0.00065258174, No Iterations 15
time step continuity errors : sum local = 2.2207724e-05, global = 1.1397433e-20, cumulative = 1.0650162e-19
DICPCG:  Solving for p_rgh, Initial residual = 0.039619724, Final residual = 0.0018536385, No Iterations 4
DICPCG:  Solving for p_rgh, Initial residual = 0.001888688, Final residual = 6.7356075e-05, No Iterations 26
time step continuity errors : sum local = 2.286405e-06, global = -1.2939033e-20, cumulative = 9.3562582e-20
DICPCG:  Solving for p_rgh, Initial residual = 0.007663485, Final residual = 0.00034985697, No Iterations 5
DICPCG:  Solving for p_rgh, Initial residual = 0.00035197357, Final residual = 7.8574332e-07, No Iterations 129
time step continuity errors : sum local = 2.5617515e-08, global = -1.8313982e-20, cumulative = 7.52486e-20
ExecutionTime = 3.61 s  ClockTime = 16 s

Courant Number mean: 0.039142698 max: 0.83472128
Interface Courant Number mean: 0.0062949784 max: 0.62176606
deltaT = 0.0014285714
Time = 0.0228571

smoothSolver:  Solving for alpha.phase1, Initial residual = 0.0033559355, Final residual = 9.7946519e-10, No Iterations 3
Phase-1 volume fraction = 0.14199999  Min(alpha.phase1) = -1.6775594e-13  Max(alpha.phase1) = 1
MULES: Correcting alpha.phase1
MULES: Correcting alpha.phase1
Phase-1 volume fraction = 0.14199999  Min(alpha.phase1) = -1.7646218e-08  Max(alpha.phase1) = 1.0000006
smoothSolver:  Solving for Ux, Initial residual = 0.087157965, Final residual = 1.3073075e-08, No Iterations 3
smoothSolver:  Solving for Uy, Initial residual = 0.13029901, Final residual = 3.989708e-08, No Iterations 3
DICPCG:  Solving for p_rgh, Initial residual = 0.58933128, Final residual = 0.021492604, No Iterations 2
DICPCG:  Solving for p_rgh, Initial residual = 0.020758578, Final residual = 0.0010249752, No Iterations 23
time step continuity errors : sum local = 3.4117414e-05, global = -7.7249405e-21, cumulative = 6.752366e-20
DICPCG:  Solving for p_rgh, Initial residual = 0.07309256, Final residual = 0.0033082757, No Iterations 4
DICPCG:  Solving for p_rgh, Initial residual = 0.0034029147, Final residual = 0.00016764446, No Iterations 27
time step continuity errors : sum local = 5.321151e-06, global = 7.7867739e-20, cumulative = 1.453914e-19
DICPCG:  Solving for p_rgh, Initial residual = 0.012344371, Final residual = 0.00056436557, No Iterations 3
DICPCG:  Solving for p_rgh, Initial residual = 0.00056583811, Final residual = 8.7595749e-07, No Iterations 129
time step continuity errors : sum local = 2.7510064e-08, global = 5.1413789e-21, cumulative = 1.5053278e-19
ExecutionTime = 3.75 s  ClockTime = 17 s

Courant Number mean: 0.039262138 max: 0.77806989
Interface Courant Number mean: 0.0054446567 max: 0.67375001
deltaT = 0.0014285714
Time = 0.0242857

smoothSolver:  Solving for alpha.phase1, Initial residual = 0.0030737892, Final residual = 1.1411103e-09, No Iterations 3
Phase-1 volume fraction = 0.14199999  Min(alpha.phase1) = -1.013429e-11  Max(alpha.phase1) = 1
MULES: Correcting alpha.phase1
MULES: Correcting alpha.phase1
Phase-1 volume fraction = 0.14199999  Min(alpha.phase1) = -5.5410623e-09  Max(alpha.phase1) = 1.0000003
smoothSolver:  Solving for Ux, Initial residual = 0.082236412, Final residual = 1.0681577e-08, No Iterations 3
smoothSolver:  Solving for Uy, Initial residual = 0.11690688, Final residual = 1.6456495e-08, No Iterations 3
DICPCG:  Solving for p_rgh, Initial residual = 0.40656036, Final residual = 0.017609216, No Iterations 2
DICPCG:  Solving for p_rgh, Initial residual = 0.01780428, Final residual = 0.00070769415, No Iterations 10
time step continuity errors : sum local = 2.3249811e-05, global = 1.2121646e-20, cumulative = 1.6265442e-19
DICPCG:  Solving for p_rgh, Initial residual = 0.050779459, Final residual = 0.0019606652, No Iterations 5
DICPCG:  Solving for p_rgh, Initial residual = 0.0019834942, Final residual = 9.7267652e-05, No Iterations 23
time step continuity errors : sum local = 3.1584067e-06, global = 4.7764188e-20, cumulative = 2.1041861e-19
DICPCG:  Solving for p_rgh, Initial residual = 0.011404892, Final residual = 0.00051797547, No Iterations 5
DICPCG:  Solving for p_rgh, Initial residual = 0.00051980922, Final residual = 9.411091e-07, No Iterations 75
time step continuity errors : sum local = 3.2832772e-08, global = -5.5417282e-20, cumulative = 1.5500133e-19
ExecutionTime = 3.86 s  ClockTime = 17 s

Courant Number mean: 0.041974119 max: 0.99725008
Interface Courant Number mean: 0.0070994546 max: 0.99725008
deltaT = 0.0014285714
Time = 0.0257143

smoothSolver:  Solving for alpha.phase1, Initial residual = 0.0034123475, Final residual = 8.981311e-10, No Iterations 3
Phase-1 volume fraction = 0.14199999  Min(alpha.phase1) = -2.0362188e-13  Max(alpha.phase1) = 1
MULES: Correcting alpha.phase1
MULES: Correcting alpha.phase1
Phase-1 volume fraction = 0.14199999  Min(alpha.phase1) = -4.6899889e-07  Max(alpha.phase1) = 1.0000002
smoothSolver:  Solving for Ux, Initial residual = 0.081949454, Final residual = 1.0010338e-08, No Iterations 3
smoothSolver:  Solving for Uy, Initial residual = 0.12819547, Final residual = 2.1904291e-08, No Iterations 3
DICPCG:  Solving for p_rgh, Initial residual = 0.5540283, Final residual = 0.021875544, No Iterations 2
DICPCG:  Solving for p_rgh, Initial residual = 0.021696515, Final residual = 0.00096039325, No Iterations 13
time step continuity errors : sum local = 3.2961467e-05, global = -1.8894885e-20, cumulative = 1.3610645e-19
DICPCG:  Solving for p_rgh, Initial residual = 0.055889577, Final residual = 0.0021645724, No Iterations 4
DICPCG:  Solving for p_rgh, Initial residual = 0.0022008794, Final residual = 9.5557056e-05, No Iterations 25
time step continuity errors : sum local = 3.3044146e-06, global = 8.4054709e-20, cumulative = 2.2016115e-19
DICPCG:  Solving for p_rgh, Initial residual = 0.0094512217, Final residual = 0.00043007834, No Iterations 4
DICPCG:  Solving for p_rgh, Initial residual = 0.00043188235, Final residual = 9.8073757e-07, No Iterations 134
time step continuity errors : sum local = 3.2721766e-08, global = -4.1830873e-20, cumulative = 1.7833028e-19
ExecutionTime = 3.98 s  ClockTime = 17 s

Courant Number mean: 0.04396588 max: 0.80595236
Interface Courant Number mean: 0.006066759 max: 0.6550943
deltaT = 0.0014285714
Time = 0.0271429

smoothSolver:  Solving for alpha.phase1, Initial residual = 0.0034450002, Final residual = 2.2228114e-09, No Iterations 3
Phase-1 volume fraction = 0.14199999  Min(alpha.phase1) = -1.1278082e-13  Max(alpha.phase1) = 1
MULES: Correcting alpha.phase1
MULES: Correcting alpha.phase1
Phase-1 volume fraction = 0.14199999  Min(alpha.phase1) = -1.419856e-06  Max(alpha.phase1) = 1.0000001
smoothSolver:  Solving for Ux, Initial residual = 0.07373708, Final residual = 1.1311726e-08, No Iterations 3
smoothSolver:  Solving for Uy, Initial residual = 0.12280136, Final residual = 3.9838035e-08, No Iterations 3
DICPCG:  Solving for p_rgh, Initial residual = 0.5617283, Final residual = 0.020686039, No Iterations 2
DICPCG:  Solving for p_rgh, Initial residual = 0.018263476, Final residual = 0.0008428353, No Iterations 22
time step continuity errors : sum local = 4.2370257e-05, global = 8.5429323e-22, cumulative = 1.7918457e-19
DICPCG:  Solving for p_rgh, Initial residual = 0.052351761, Final residual = 0.0022916885, No Iterations 5
DICPCG:  Solving for p_rgh, Initial residual = 0.0023499147, Final residual = 8.5237572e-05, No Iterations 21
time step continuity errors : sum local = 4.1616988e-06, global = -7.4584579e-20, cumulative = 1.046e-19
DICPCG:  Solving for p_rgh, Initial residual = 0.0078066239, Final residual = 0.00035004925, No Iterations 7
DICPCG:  Solving for p_rgh, Initial residual = 0.00035242582, Final residual = 9.7902413e-07, No Iterations 134
time step continuity errors : sum local = 4.6357712e-08, global = -5.3905631e-20, cumulative = 5.0694366e-20
ExecutionTime = 4.11 s  ClockTime = 17 s

Courant Number mean: 0.04619497 max: 0.97106786
Interface Courant Number mean: 0.005885161 max: 0.62424011
deltaT = 0.0014285714
Time = 0.0285714

smoothSolver:  Solving for alpha.phase1, Initial residual = 0.0035703373, Final residual = 3.0662943e-09, No Iterations 3
Phase-1 volume fraction = 0.14199999  Min(alpha.phase1) = -9.9394468e-14  Max(alpha.phase1) = 1.0000001
MULES: Correcting alpha.phase1
MULES: Correcting alpha.phase1
Phase-1 volume fraction = 0.14199999  Min(alpha.phase1) = -0.00023225258  Max(alpha.phase1) = 1.0000006
smoothSolver:  Solving for Ux, Initial residual = 0.082895084, Final residual = 3.0887788e-08, No Iterations 3
smoothSolver:  Solving for Uy, Initial residual = 0.13085955, Final residual = 5.8235376e-08, No Iterations 3
DICPCG:  Solving for p_rgh, Initial residual = 0.52429467, Final residual = 0.020435236, No Iterations 2
DICPCG:  Solving for p_rgh, Initial residual = 0.01910215, Final residual = 0.00091389915, No Iterations 23
time step continuity errors : sum local = 4.470032e-05, global = 1.6567964e-20, cumulative = 6.726233e-20
DICPCG:  Solving for p_rgh, Initial residual = 0.051996186, Final residual = 0.0025814268, No Iterations 9
DICPCG:  Solving for p_rgh, Initial residual = 0.0026373443, Final residual = 0.00011374727, No Iterations 23
time step continuity errors : sum local = 5.2898309e-06, global = 6.5415144e-20, cumulative = 1.3267747e-19
DICPCG:  Solving for p_rgh, Initial residual = 0.0095518661, Final residual = 0.00045833756, No Iterations 20
DICPCG:  Solving for p_rgh, Initial residual = 0.00045989028, Final residual = 9.1723786e-07, No Iterations 105
time step continuity errors : sum local = 4.2472336e-08, global = -1.7448122e-21, cumulative = 1.3093266e-19
ExecutionTime = 4.23 s  ClockTime = 17 s

Courant Number mean: 0.048289138 max: 0.91879293
Interface Courant Number mean: 0.0068140672 max: 0.87547248
deltaT = 0.0014285714
Time = 0.03

smoothSolver:  Solving for alpha.phase1, Initial residual = 0.0038896718, Final residual = 5.5573636e-09, No Iterations 3
Phase-1 volume fraction = 0.14199999  Min(alpha.phase1) = -8.785152e-14  Max(alpha.phase1) = 1.0000001
MULES: Correcting alpha.phase1
MULES: Correcting alpha.phase1
Phase-1 volume fraction = 0.14199999  Min(alpha.phase1) = -3.1878677e-06  Max(alpha.phase1) = 1.0000001
smoothSolver:  Solving for Ux, Initial residual = 0.088323913, Final residual = 5.0943713e-08, No Iterations 3
smoothSolver:  Solving for Uy, Initial residual = 0.14295573, Final residual = 1.4465643e-07, No Iterations 3
DICPCG:  Solving for p_rgh, Initial residual = 0.58159621, Final residual = 0.021445175, No Iterations 2
DICPCG:  Solving for p_rgh, Initial residual = 0.019967871, Final residual = 0.00095719135, No Iterations 12
time step continuity errors : sum local = 4.4911264e-05, global = -2.1803838e-20, cumulative = 1.0912882e-19
DICPCG:  Solving for p_rgh, Initial residual = 0.054261954, Final residual = 0.0024797102, No Iterations 5
DICPCG:  Solving for p_rgh, Initial residual = 0.0025411816, Final residual = 0.00010408329, No Iterations 25
time step continuity errors : sum local = 4.6863892e-06, global = 5.7150523e-21, cumulative = 1.1484388e-19
DICPCG:  Solving for p_rgh, Initial residual = 0.0096336359, Final residual = 0.00047509847, No Iterations 9
DICPCG:  Solving for p_rgh, Initial residual = 0.00047584839, Final residual = 9.6533168e-07, No Iterations 75
time step continuity errors : sum local = 5.1917869e-08, global = -1.6581999e-21, cumulative = 1.1318568e-19
ExecutionTime = 4.42 s  ClockTime = 17 s

Courant Number mean: 0.050136359 max: 0.88070887
Interface Courant Number mean: 0.0066725666 max: 0.7960922
deltaT = 0.0014285714
Time = 0.0314286

smoothSolver:  Solving for alpha.phase1, Initial residual = 0.0039057595, Final residual = 2.4141075e-09, No Iterations 3
Phase-1 volume fraction = 0.14199998  Min(alpha.phase1) = -7.7746395e-14  Max(alpha.phase1) = 1.0000001
MULES: Correcting alpha.phase1
MULES: Correcting alpha.phase1
Phase-1 volume fraction = 0.14199998  Min(alpha.phase1) = -2.3321078e-05  Max(alpha.phase1) = 1.0000001
smoothSolver:  Solving for Ux, Initial residual = 0.085535893, Final residual = 2.6182177e-08, No Iterations 3
smoothSolver:  Solving for Uy, Initial residual = 0.1429798, Final residual = 6.5664079e-08, No Iterations 3
DICPCG:  Solving for p_rgh, Initial residual = 0.56661222, Final residual = 0.019983592, No Iterations 2
DICPCG:  Solving for p_rgh, Initial residual = 0.019375788, Final residual = 0.00089675138, No Iterations 22
time step continuity errors : sum local = 3.9655567e-05, global = 5.3290473e-21, cumulative = 1.1851472e-19
DICPCG:  Solving for p_rgh, Initial residual = 0.069735917, Final residual = 0.0031772664, No Iterations 5
DICPCG:  Solving for p_rgh, Initial residual = 0.0032670671, Final residual = 0.00012452136, No Iterations 27
time step continuity errors : sum local = 5.2356354e-06, global = 6.6927703e-21, cumulative = 1.2520749e-19
DICPCG:  Solving for p_rgh, Initial residual = 0.012882632, Final residual = 0.00059450642, No Iterations 18
DICPCG:  Solving for p_rgh, Initial residual = 0.00059629979, Final residual = 8.8996108e-07, No Iterations 127
time step continuity errors : sum local = 3.693246e-08, global = 5.1580903e-20, cumulative = 1.767884e-19
ExecutionTime = 4.55 s  ClockTime = 17 s

Courant Number mean: 0.052057337 max: 0.8859485
Interface Courant Number mean: 0.0063260931 max: 0.69974559
deltaT = 0.0014285714
Time = 0.0328571

smoothSolver:  Solving for alpha.phase1, Initial residual = 0.0041311603, Final residual = 4.1503364e-09, No Iterations 3
Phase-1 volume fraction = 0.14199998  Min(alpha.phase1) = -6.8936179e-14  Max(alpha.phase1) = 1.0000001
MULES: Correcting alpha.phase1
MULES: Correcting alpha.phase1
Phase-1 volume fraction = 0.14199998  Min(alpha.phase1) = -3.1695824e-05  Max(alpha.phase1) = 1.0000003
smoothSolver:  Solving for Ux, Initial residual = 0.080968604, Final residual = 2.7384705e-08, No Iterations 3
smoothSolver:  Solving for Uy, Initial residual = 0.14281028, Final residual = 4.0482707e-08, No Iterations 3
DICPCG:  Solving for p_rgh, Initial residual = 0.6112886, Final residual = 0.023024688, No Iterations 2
DICPCG:  Solving for p_rgh, Initial residual = 0.021923654, Final residual = 0.00090360388, No Iterations 13
time step continuity errors : sum local = 3.6714616e-05, global = 3.4256432e-20, cumulative = 2.1104483e-19
DICPCG:  Solving for p_rgh, Initial residual = 0.066733078, Final residual = 0.0032590081, No Iterations 4
DICPCG:  Solving for p_rgh, Initial residual = 0.0033217491, Final residual = 0.00014757255, No Iterations 24
time step continuity errors : sum local = 5.9436249e-06, global = 1.7056861e-20, cumulative = 2.2810169e-19
DICPCG:  Solving for p_rgh, Initial residual = 0.012535447, Final residual = 0.00058229937, No Iterations 3
DICPCG:  Solving for p_rgh, Initial residual = 0.00058529718, Final residual = 8.7190553e-07, No Iterations 133
time step continuity errors : sum local = 3.4028662e-08, global = 6.1967947e-20, cumulative = 2.9006964e-19
ExecutionTime = 4.67 s  ClockTime = 18 s

Courant Number mean: 0.055317803 max: 1.0654358
Interface Courant Number mean: 0.0068775654 max: 0.71954957
deltaT = 0.0011904762
Time = 0.0340476

smoothSolver:  Solving for alpha.phase1, Initial residual = 0.0034602886, Final residual = 1.9484236e-09, No Iterations 3
Phase-1 volume fraction = 0.14199998  Min(alpha.phase1) = -6.247944e-14  Max(alpha.phase1) = 1.0000001
MULES: Correcting alpha.phase1
MULES: Correcting alpha.phase1
Phase-1 volume fraction = 0.14199998  Min(alpha.phase1) = -2.2459332e-06  Max(alpha.phase1) = 1.0000008
smoothSolver:  Solving for Ux, Initial residual = 0.068569293, Final residual = 7.713843e-09, No Iterations 3
smoothSolver:  Solving for Uy, Initial residual = 0.10811297, Final residual = 1.5648153e-08, No Iterations 3
DICPCG:  Solving for p_rgh, Initial residual = 0.4636847, Final residual = 0.017911089, No Iterations 2
DICPCG:  Solving for p_rgh, Initial residual = 0.017881807, Final residual = 0.0008677593, No Iterations 22
time step continuity errors : sum local = 2.7574677e-05, global = 5.0136283e-21, cumulative = 2.9508327e-19
DICPCG:  Solving for p_rgh, Initial residual = 0.041151754, Final residual = 0.0018388613, No Iterations 5
DICPCG:  Solving for p_rgh, Initial residual = 0.0018662909, Final residual = 7.2086053e-05, No Iterations 27
time step continuity errors : sum local = 2.2625153e-06, global = -2.4106375e-20, cumulative = 2.7097689e-19
DICPCG:  Solving for p_rgh, Initial residual = 0.0059669671, Final residual = 0.00029130529, No Iterations 17
DICPCG:  Solving for p_rgh, Initial residual = 0.00029222715, Final residual = 8.6297824e-07, No Iterations 104
time step continuity errors : sum local = 2.6654404e-08, global = -1.7853792e-20, cumulative = 2.531231e-19
ExecutionTime = 4.8 s  ClockTime = 18 s

Courant Number mean: 0.046706199 max: 0.63910993
Interface Courant Number mean: 0.0049562169 max: 0.57245032
deltaT = 0.0011904762
Time = 0.0352381

smoothSolver:  Solving for alpha.phase1, Initial residual = 0.003395562, Final residual = 1.1392289e-09, No Iterations 3
Phase-1 volume fraction = 0.14199998  Min(alpha.phase1) = -5.6854348e-14  Max(alpha.phase1) = 1.0000001
MULES: Correcting alpha.phase1
MULES: Correcting alpha.phase1
Phase-1 volume fraction = 0.14199998  Min(alpha.phase1) = -3.3068171e-08  Max(alpha.phase1) = 1.0000028
smoothSolver:  Solving for Ux, Initial residual = 0.060917402, Final residual = 6.9948837e-07, No Iterations 2
smoothSolver:  Solving for Uy, Initial residual = 0.098661865, Final residual = 2.9993305e-08, No Iterations 3
DICPCG:  Solving for p_rgh, Initial residual = 0.49826637, Final residual = 0.018642376, No Iterations 2
DICPCG:  Solving for p_rgh, Initial residual = 0.017871693, Final residual = 0.00081177356, No Iterations 24
time step continuity errors : sum local = 3.0285298e-05, global = -2.622777e-20, cumulative = 2.2689533e-19
DICPCG:  Solving for p_rgh, Initial residual = 0.044582689, Final residual = 0.0022036869, No Iterations 6
DICPCG:  Solving for p_rgh, Initial residual = 0.0022284697, Final residual = 8.2453254e-05, No Iterations 26
time step continuity errors : sum local = 3.0125158e-06, global = 1.2860279e-20, cumulative = 2.3975561e-19
DICPCG:  Solving for p_rgh, Initial residual = 0.0054517238, Final residual = 0.00024181621, No Iterations 18
DICPCG:  Solving for p_rgh, Initial residual = 0.00024234608, Final residual = 8.926842e-07, No Iterations 69
time step continuity errors : sum local = 3.4089076e-08, global = 2.5338638e-20, cumulative = 2.6509425e-19
ExecutionTime = 4.91 s  ClockTime = 18 s

Courant Number mean: 0.047877437 max: 0.70065682
Interface Courant Number mean: 0.0048925013 max: 0.52972732
deltaT = 0.0011904762
Time = 0.0364286

smoothSolver:  Solving for alpha.phase1, Initial residual = 0.0034582394, Final residual = 1.3091804e-09, No Iterations 3
Phase-1 volume fraction = 0.14199998  Min(alpha.phase1) = -5.2022065e-14  Max(alpha.phase1) = 1.0000001
MULES: Correcting alpha.phase1
MULES: Correcting alpha.phase1
Phase-1 volume fraction = 0.14199998  Min(alpha.phase1) = -1.0907405e-07  Max(alpha.phase1) = 1.0000001
smoothSolver:  Solving for Ux, Initial residual = 0.059948628, Final residual = 8.2348027e-09, No Iterations 3
smoothSolver:  Solving for Uy, Initial residual = 0.096516778, Final residual = 1.4760681e-08, No Iterations 3
DICPCG:  Solving for p_rgh, Initial residual = 0.48725654, Final residual = 0.017149943, No Iterations 2
DICPCG:  Solving for p_rgh, Initial residual = 0.01684382, Final residual = 0.00065702933, No Iterations 8
time step continuity errors : sum local = 2.3737551e-05, global = 7.7430407e-21, cumulative = 2.7283729e-19
DICPCG:  Solving for p_rgh, Initial residual = 0.046966503, Final residual = 0.0020734627, No Iterations 4
DICPCG:  Solving for p_rgh, Initial residual = 0.0020993249, Final residual = 9.8479542e-05, No Iterations 25
time step continuity errors : sum local = 3.4946433e-06, global = 1.1257723e-20, cumulative = 2.8409501e-19
DICPCG:  Solving for p_rgh, Initial residual = 0.0062983065, Final residual = 0.00029929948, No Iterations 4
DICPCG:  Solving for p_rgh, Initial residual = 0.00029972543, Final residual = 9.5341121e-07, No Iterations 76
time step continuity errors : sum local = 3.9088217e-08, global = -1.0759335e-21, cumulative = 2.8301908e-19
ExecutionTime = 5.02 s  ClockTime = 18 s

Courant Number mean: 0.04841858 max: 0.6301914
Interface Courant Number mean: 0.0045354012 max: 0.41240255
deltaT = 0.0011904762
Time = 0.037619

smoothSolver:  Solving for alpha.phase1, Initial residual = 0.003133408, Final residual = 5.7931316e-10, No Iterations 3
Phase-1 volume fraction = 0.14199998  Min(alpha.phase1) = -4.7854112e-14  Max(alpha.phase1) = 1.0000001
MULES: Correcting alpha.phase1
MULES: Correcting alpha.phase1
Phase-1 volume fraction = 0.14199998  Min(alpha.phase1) = -3.6021185e-09  Max(alpha.phase1) = 1.0000001
smoothSolver:  Solving for Ux, Initial residual = 0.059028664, Final residual = 6.4517967e-07, No Iterations 2
smoothSolver:  Solving for Uy, Initial residual = 0.097283878, Final residual = 1.3751877e-08, No Iterations 3
DICPCG:  Solving for p_rgh, Initial residual = 0.52667275, Final residual = 0.016400673, No Iterations 2
DICPCG:  Solving for p_rgh, Initial residual = 0.016859054, Final residual = 0.00077373274, No Iterations 19
time step continuity errors : sum local = 2.5784274e-05, global = -4.8200208e-21, cumulative = 2.7819906e-19
DICPCG:  Solving for p_rgh, Initial residual = 0.045282357, Final residual = 0.0022082527, No Iterations 5
DICPCG:  Solving for p_rgh, Initial residual = 0.0022329326, Final residual = 9.4399207e-05, No Iterations 26
time step continuity errors : sum local = 3.092962e-06, global = 5.5364191e-20, cumulative = 3.3356325e-19
DICPCG:  Solving for p_rgh, Initial residual = 0.0057175777, Final residual = 0.00027564919, No Iterations 18
DICPCG:  Solving for p_rgh, Initial residual = 0.00027558699, Final residual = 8.970833e-07, No Iterations 72
time step continuity errors : sum local = 3.4307373e-08, global = 1.0032614e-20, cumulative = 3.4359586e-19
ExecutionTime = 5.14 s  ClockTime = 18 s

Courant Number mean: 0.049887247 max: 0.660206
Interface Courant Number mean: 0.0048212606 max: 0.61942712
deltaT = 0.0011904762
Time = 0.0388095

smoothSolver:  Solving for alpha.phase1, Initial residual = 0.0034495984, Final residual = 9.0754409e-10, No Iterations 3
Phase-1 volume fraction = 0.14199998  Min(alpha.phase1) = -4.4217473e-14  Max(alpha.phase1) = 1.0000001
MULES: Correcting alpha.phase1
MULES: Correcting alpha.phase1
Phase-1 volume fraction = 0.14199998  Min(alpha.phase1) = -1.7886165e-05  Max(alpha.phase1) = 1.0000001
smoothSolver:  Solving for Ux, Initial residual = 0.054743841, Final residual = 7.3071061e-07, No Iterations 2
smoothSolver:  Solving for Uy, Initial residual = 0.087714031, Final residual = 7.2609304e-09, No Iterations 3
DICPCG:  Solving for p_rgh, Initial residual = 0.52353799, Final residual = 0.019010471, No Iterations 2
DICPCG:  Solving for p_rgh, Initial residual = 0.019112355, Final residual = 0.00083467574, No Iterations 11
time step continuity errors : sum local = 2.6116069e-05, global = 4.6110356e-21, cumulative = 3.482069e-19
DICPCG:  Solving for p_rgh, Initial residual = 0.051856671, Final residual = 0.0024650911, No Iterations 4
DICPCG:  Solving for p_rgh, Initial residual = 0.0024917079, Final residual = 0.00011370413, No Iterations 25
time step continuity errors : sum local = 3.5208085e-06, global = 2.0849615e-20, cumulative = 3.6905651e-19
DICPCG:  Solving for p_rgh, Initial residual = 0.0060486165, Final residual = 0.00028686074, No Iterations 4
DICPCG:  Solving for p_rgh, Initial residual = 0.00028809972, Final residual = 7.9846265e-07, No Iterations 126
time step continuity errors : sum local = 2.4460172e-08, global = 2.2385367e-20, cumulative = 3.9144188e-19
ExecutionTime = 5.25 s  ClockTime = 18 s

Courant Number mean: 0.050557044 max: 0.58682228
Interface Courant Number mean: 0.0043106955 max: 0.37522597
deltaT = 0.0011904762
Time = 0.04

smoothSolver:  Solving for alpha.phase1, Initial residual = 0.0032718752, Final residual = 4.6502577e-10, No Iterations 3
Phase-1 volume fraction = 0.14199998  Min(alpha.phase1) = -2.7800735e-10  Max(alpha.phase1) = 1.0000001
MULES: Correcting alpha.phase1
MULES: Correcting alpha.phase1
Phase-1 volume fraction = 0.14199998  Min(alpha.phase1) = -2.7788522e-10  Max(alpha.phase1) = 1.0000001
smoothSolver:  Solving for Ux, Initial residual = 0.047532041, Final residual = 5.5861509e-07, No Iterations 2
smoothSolver:  Solving for Uy, Initial residual = 0.084865702, Final residual = 6.7402567e-07, No Iterations 2
DICPCG:  Solving for p_rgh, Initial residual = 0.53244762, Final residual = 0.016907848, No Iterations 2
DICPCG:  Solving for p_rgh, Initial residual = 0.015341577, Final residual = 0.00062898284, No Iterations 13
time step continuity errors : sum local = 2.3399322e-05, global = -5.1729504e-20, cumulative = 3.3971237e-19
DICPCG:  Solving for p_rgh, Initial residual = 0.043877443, Final residual = 0.0021109385, No Iterations 5
DICPCG:  Solving for p_rgh, Initial residual = 0.0021364654, Final residual = 0.00010115844, No Iterations 25
time step continuity errors : sum local = 3.7307103e-06, global = -2.4724791e-20, cumulative = 3.1498758e-19
DICPCG:  Solving for p_rgh, Initial residual = 0.005085358, Final residual = 0.00025373167, No Iterations 8
DICPCG:  Solving for p_rgh, Initial residual = 0.00025470969, Final residual = 9.5115336e-07, No Iterations 75
time step continuity errors : sum local = 3.6309116e-08, global = 1.8091212e-20, cumulative = 3.330788e-19
ExecutionTime = 5.44 s  ClockTime = 18 s

Courant Number mean: 0.052298233 max: 0.5957285
Interface Courant Number mean: 0.0044470555 max: 0.4823695
deltaT = 0.00125
Time = 0.04125

[...]
time step continuity errors : sum local = 9.7454401e-07, global = -2.1310449e-19, cumulative = 3.4744543e-18
DICPCG:  Solving for p_rgh, Initial residual = 0.002941364, Final residual = 0.00013995635, No Iterations 6
DICPCG:  Solving for p_rgh, Initial residual = 0.00014625653, Final residual = 9.959151e-07, No Iterations 125
time step continuity errors : sum local = 1.6155623e-08, global = 1.0878404e-19, cumulative = 3.5832383e-18
ExecutionTime = 144.84 s  ClockTime = 159 s

Courant Number mean: 0.07064689 max: 0.51387727
Interface Courant Number mean: 0.0036071056 max: 0.41961481
deltaT = 0.0009375
Time = 0.989062

smoothSolver:  Solving for alpha.phase1, Initial residual = 0.0022285934, Final residual = 5.7475882e-11, No Iterations 3
Phase-1 volume fraction = 0.14199629  Min(alpha.phase1) = -2.1074862e-05  Max(alpha.phase1) = 1
MULES: Correcting alpha.phase1
MULES: Correcting alpha.phase1
Phase-1 volume fraction = 0.14199629  Min(alpha.phase1) = -2.1074862e-05  Max(alpha.phase1) = 1.0000002
smoothSolver:  Solving for Ux, Initial residual = 0.024037147, Final residual = 1.6379892e-07, No Iterations 2
smoothSolver:  Solving for Uy, Initial residual = 0.025005123, Final residual = 1.3966153e-07, No Iterations 2
DICPCG:  Solving for p_rgh, Initial residual = 0.34106589, Final residual = 0.013060963, No Iterations 2
DICPCG:  Solving for p_rgh, Initial residual = 0.013360288, Final residual = 0.00055921985, No Iterations 24
time step continuity errors : sum local = 8.5661437e-06, global = -1.7573287e-20, cumulative = 3.565665e-18
DICPCG:  Solving for p_rgh, Initial residual = 0.028240217, Final residual = 0.0013684287, No Iterations 5
DICPCG:  Solving for p_rgh, Initial residual = 0.0013746362, Final residual = 6.563433e-05, No Iterations 47
time step continuity errors : sum local = 1.0730647e-06, global = -7.2582121e-20, cumulative = 3.4930829e-18
DICPCG:  Solving for p_rgh, Initial residual = 0.0031284852, Final residual = 0.00014382949, No Iterations 5
DICPCG:  Solving for p_rgh, Initial residual = 0.00014770288, Final residual = 9.5086485e-07, No Iterations 127
time step continuity errors : sum local = 1.4472483e-08, global = -4.2851761e-20, cumulative = 3.4502312e-18
ExecutionTime = 144.96 s  ClockTime = 159 s

Courant Number mean: 0.070345094 max: 0.56572205
Interface Courant Number mean: 0.0036930674 max: 0.56572205
deltaT = 0.0009375
Time = 0.99

smoothSolver:  Solving for alpha.phase1, Initial residual = 0.0021338499, Final residual = 4.8097208e-11, No Iterations 3
Phase-1 volume fraction = 0.14199629  Min(alpha.phase1) = -1.8437031e-05  Max(alpha.phase1) = 1
MULES: Correcting alpha.phase1
MULES: Correcting alpha.phase1
Phase-1 volume fraction = 0.14199629  Min(alpha.phase1) = -1.8437031e-05  Max(alpha.phase1) = 1
smoothSolver:  Solving for Ux, Initial residual = 0.024065928, Final residual = 1.6074079e-07, No Iterations 2
smoothSolver:  Solving for Uy, Initial residual = 0.02623986, Final residual = 1.3938857e-07, No Iterations 2
DICPCG:  Solving for p_rgh, Initial residual = 0.29811058, Final residual = 0.011488142, No Iterations 2
DICPCG:  Solving for p_rgh, Initial residual = 0.010987766, Final residual = 0.00054596677, No Iterations 25
time step continuity errors : sum local = 8.7412497e-06, global = 1.5362848e-19, cumulative = 3.6038596e-18
DICPCG:  Solving for p_rgh, Initial residual = 0.020973717, Final residual = 0.00094552376, No Iterations 5
DICPCG:  Solving for p_rgh, Initial residual = 0.00095068299, Final residual = 4.027195e-05, No Iterations 119
time step continuity errors : sum local = 6.3591677e-07, global = 2.9836074e-20, cumulative = 3.6336957e-18
DICPCG:  Solving for p_rgh, Initial residual = 0.0024447468, Final residual = 0.00011419348, No Iterations 6
DICPCG:  Solving for p_rgh, Initial residual = 0.00011424127, Final residual = 7.7345443e-07, No Iterations 127
time step continuity errors : sum local = 1.2254588e-08, global = -7.5748122e-20, cumulative = 3.5579476e-18
ExecutionTime = 145.2 s  ClockTime = 160 s

Courant Number mean: 0.070183448 max: 0.50936081
Interface Courant Number mean: 0.0036462186 max: 0.50936081
deltaT = 0.0011111111
Time = 0.991111

smoothSolver:  Solving for alpha.phase1, Initial residual = 0.0025034874, Final residual = 1.9414609e-10, No Iterations 3
Phase-1 volume fraction = 0.14199629  Min(alpha.phase1) = -1.5727132e-05  Max(alpha.phase1) = 1
MULES: Correcting alpha.phase1
MULES: Correcting alpha.phase1
Phase-1 volume fraction = 0.14199629  Min(alpha.phase1) = -0.00013022764  Max(alpha.phase1) = 1
smoothSolver:  Solving for Ux, Initial residual = 0.031015879, Final residual = 3.0001518e-07, No Iterations 2
smoothSolver:  Solving for Uy, Initial residual = 0.029830337, Final residual = 3.2324271e-07, No Iterations 2
DICPCG:  Solving for p_rgh, Initial residual = 0.33764634, Final residual = 0.014068088, No Iterations 2
DICPCG:  Solving for p_rgh, Initial residual = 0.014094832, Final residual = 0.00069353796, No Iterations 23
time step continuity errors : sum local = 1.4253659e-05, global = 1.2391527e-19, cumulative = 3.6818629e-18
DICPCG:  Solving for p_rgh, Initial residual = 0.030760779, Final residual = 0.0014114824, No Iterations 5
DICPCG:  Solving for p_rgh, Initial residual = 0.0014179021, Final residual = 6.8757045e-05, No Iterations 54
time step continuity errors : sum local = 1.6141406e-06, global = 6.2328449e-20, cumulative = 3.7441913e-18
DICPCG:  Solving for p_rgh, Initial residual = 0.0035996468, Final residual = 0.00017342398, No Iterations 4
DICPCG:  Solving for p_rgh, Initial residual = 0.00018138331, Final residual = 9.4409359e-07, No Iterations 112
time step continuity errors : sum local = 1.9640161e-08, global = 1.025284e-19, cumulative = 3.8467197e-18
ExecutionTime = 145.33 s  ClockTime = 160 s

Courant Number mean: 0.083283056 max: 0.6164524
Interface Courant Number mean: 0.0043518922 max: 0.57891803
deltaT = 0.0012698413
Time = 0.992381

smoothSolver:  Solving for alpha.phase1, Initial residual = 0.0029570093, Final residual = 5.2717566e-10, No Iterations 3
Phase-1 volume fraction = 0.14199629  Min(alpha.phase1) = -1.3146755e-05  Max(alpha.phase1) = 1
MULES: Correcting alpha.phase1
MULES: Correcting alpha.phase1
Phase-1 volume fraction = 0.14199629  Min(alpha.phase1) = -0.00014524225  Max(alpha.phase1) = 1.0000004
smoothSolver:  Solving for Ux, Initial residual = 0.034090101, Final residual = 7.1128612e-09, No Iterations 3
smoothSolver:  Solving for Uy, Initial residual = 0.038989906, Final residual = 7.4380837e-07, No Iterations 2
DICPCG:  Solving for p_rgh, Initial residual = 0.4151655, Final residual = 0.017028451, No Iterations 2
DICPCG:  Solving for p_rgh, Initial residual = 0.016608388, Final residual = 0.00082451384, No Iterations 23
time step continuity errors : sum local = 2.1697817e-05, global = 4.7007908e-20, cumulative = 3.8937276e-18
DICPCG:  Solving for p_rgh, Initial residual = 0.045114426, Final residual = 0.0021645214, No Iterations 6
DICPCG:  Solving for p_rgh, Initial residual = 0.0021921322, Final residual = 0.00010558055, No Iterations 38
time step continuity errors : sum local = 2.8327255e-06, global = 8.5765985e-20, cumulative = 3.9794936e-18
DICPCG:  Solving for p_rgh, Initial residual = 0.0061541012, Final residual = 0.00030641982, No Iterations 10
DICPCG:  Solving for p_rgh, Initial residual = 0.00031025778, Final residual = 9.8579812e-07, No Iterations 129
time step continuity errors : sum local = 2.5422345e-08, global = 3.6280371e-19, cumulative = 4.3422973e-18
ExecutionTime = 145.46 s  ClockTime = 160 s

Courant Number mean: 0.094959403 max: 0.70777451
Interface Courant Number mean: 0.0050500899 max: 0.70367146
deltaT = 0.0012698413
Time = 0.993651

smoothSolver:  Solving for alpha.phase1, Initial residual = 0.0029487426, Final residual = 9.1778665e-10, No Iterations 3
Phase-1 volume fraction = 0.14199629  Min(alpha.phase1) = -1.1000944e-05  Max(alpha.phase1) = 1
MULES: Correcting alpha.phase1
MULES: Correcting alpha.phase1
Phase-1 volume fraction = 0.14199629  Min(alpha.phase1) = -0.00043122499  Max(alpha.phase1) = 1.0000002
smoothSolver:  Solving for Ux, Initial residual = 0.036597652, Final residual = 9.6207986e-07, No Iterations 2
smoothSolver:  Solving for Uy, Initial residual = 0.03584674, Final residual = 8.6124374e-07, No Iterations 2
DICPCG:  Solving for p_rgh, Initial residual = 0.36780886, Final residual = 0.014910362, No Iterations 2
DICPCG:  Solving for p_rgh, Initial residual = 0.015173318, Final residual = 0.00074533903, No Iterations 22
time step continuity errors : sum local = 1.8247426e-05, global = -3.4021078e-20, cumulative = 4.3082762e-18
DICPCG:  Solving for p_rgh, Initial residual = 0.038083221, Final residual = 0.0016994565, No Iterations 6
DICPCG:  Solving for p_rgh, Initial residual = 0.0017148755, Final residual = 8.4047975e-05, No Iterations 50
time step continuity errors : sum local = 2.1078905e-06, global = 1.2456493e-19, cumulative = 4.4328412e-18
DICPCG:  Solving for p_rgh, Initial residual = 0.0058359171, Final residual = 0.00029113709, No Iterations 6
DICPCG:  Solving for p_rgh, Initial residual = 0.00029400812, Final residual = 8.4205006e-07, No Iterations 131
time step continuity errors : sum local = 2.0254763e-08, global = 5.590888e-20, cumulative = 4.4887501e-18
ExecutionTime = 145.6 s  ClockTime = 160 s

Courant Number mean: 0.094852594 max: 0.80771299
Interface Courant Number mean: 0.0049338838 max: 0.80771299
deltaT = 0.0012698413
Time = 0.994921

smoothSolver:  Solving for alpha.phase1, Initial residual = 0.0030166789, Final residual = 6.2196762e-10, No Iterations 3
Phase-1 volume fraction = 0.14199629  Min(alpha.phase1) = -9.1913655e-06  Max(alpha.phase1) = 1
MULES: Correcting alpha.phase1
MULES: Correcting alpha.phase1
Phase-1 volume fraction = 0.14199629  Min(alpha.phase1) = -0.00086613911  Max(alpha.phase1) = 1.0000013
smoothSolver:  Solving for Ux, Initial residual = 0.037566043, Final residual = 8.3906542e-09, No Iterations 3
smoothSolver:  Solving for Uy, Initial residual = 0.040436022, Final residual = 8.8859861e-09, No Iterations 3
DICPCG:  Solving for p_rgh, Initial residual = 0.42942924, Final residual = 0.017976302, No Iterations 2
DICPCG:  Solving for p_rgh, Initial residual = 0.017312767, Final residual = 0.00086141122, No Iterations 18
time step continuity errors : sum local = 2.2442226e-05, global = 3.573995e-20, cumulative = 4.52449e-18
DICPCG:  Solving for p_rgh, Initial residual = 0.046105071, Final residual = 0.0020302855, No Iterations 6
DICPCG:  Solving for p_rgh, Initial residual = 0.002058282, Final residual = 0.00010280029, No Iterations 47
time step continuity errors : sum local = 2.7320583e-06, global = -1.4624575e-19, cumulative = 4.3782443e-18
DICPCG:  Solving for p_rgh, Initial residual = 0.0067528311, Final residual = 0.0003144375, No Iterations 8
DICPCG:  Solving for p_rgh, Initial residual = 0.0003185348, Final residual = 8.8286817e-07, No Iterations 130
time step continuity errors : sum local = 2.2424108e-08, global = 6.711163e-20, cumulative = 4.4453559e-18
ExecutionTime = 145.73 s  ClockTime = 160 s

Courant Number mean: 0.09461114 max: 0.75634135
Interface Courant Number mean: 0.0046828168 max: 0.65926751
deltaT = 0.0012698413
Time = 0.99619

smoothSolver:  Solving for alpha.phase1, Initial residual = 0.0028973384, Final residual = 6.8299867e-10, No Iterations 3
Phase-1 volume fraction = 0.14199629  Min(alpha.phase1) = -7.6538527e-06  Max(alpha.phase1) = 1.000001
MULES: Correcting alpha.phase1
MULES: Correcting alpha.phase1
Phase-1 volume fraction = 0.14199629  Min(alpha.phase1) = -0.00019782885  Max(alpha.phase1) = 1.000001
smoothSolver:  Solving for Ux, Initial residual = 0.039613758, Final residual = 1.0600362e-08, No Iterations 3
smoothSolver:  Solving for Uy, Initial residual = 0.040331214, Final residual = 9.6223111e-07, No Iterations 2
DICPCG:  Solving for p_rgh, Initial residual = 0.37818759, Final residual = 0.01450411, No Iterations 2
DICPCG:  Solving for p_rgh, Initial residual = 0.013926794, Final residual = 0.00063113755, No Iterations 25
time step continuity errors : sum local = 1.7465453e-05, global = -1.5419758e-19, cumulative = 4.2911583e-18
DICPCG:  Solving for p_rgh, Initial residual = 0.040830865, Final residual = 0.001724865, No Iterations 5
DICPCG:  Solving for p_rgh, Initial residual = 0.0017397585, Final residual = 8.6599177e-05, No Iterations 48
time step continuity errors : sum local = 2.6690252e-06, global = -8.3251238e-20, cumulative = 4.2079071e-18
DICPCG:  Solving for p_rgh, Initial residual = 0.0063784593, Final residual = 0.00029931547, No Iterations 5
DICPCG:  Solving for p_rgh, Initial residual = 0.00030794381, Final residual = 8.929661e-07, No Iterations 129
time step continuity errors : sum local = 2.4291438e-08, global = 4.3877718e-20, cumulative = 4.2517848e-18
ExecutionTime = 145.87 s  ClockTime = 160 s

Courant Number mean: 0.094824521 max: 1.0393223
Interface Courant Number mean: 0.0052142824 max: 0.64742706
deltaT = 0.00095238095
Time = 0.997143

smoothSolver:  Solving for alpha.phase1, Initial residual = 0.0021809583, Final residual = 1.585357e-10, No Iterations 3
Phase-1 volume fraction = 0.14199629  Min(alpha.phase1) = -6.6198705e-06  Max(alpha.phase1) = 1
MULES: Correcting alpha.phase1
MULES: Correcting alpha.phase1
Phase-1 volume fraction = 0.14199629  Min(alpha.phase1) = -6.6198705e-06  Max(alpha.phase1) = 1.0000001
smoothSolver:  Solving for Ux, Initial residual = 0.028576114, Final residual = 3.3019604e-07, No Iterations 2
smoothSolver:  Solving for Uy, Initial residual = 0.026737181, Final residual = 2.8346786e-07, No Iterations 2
DICPCG:  Solving for p_rgh, Initial residual = 0.31664548, Final residual = 0.012850272, No Iterations 2
DICPCG:  Solving for p_rgh, Initial residual = 0.013601344, Final residual = 0.00065981798, No Iterations 18
time step continuity errors : sum local = 9.5326212e-06, global = -1.5874204e-20, cumulative = 4.2359106e-18
DICPCG:  Solving for p_rgh, Initial residual = 0.029350074, Final residual = 0.0012995369, No Iterations 9
DICPCG:  Solving for p_rgh, Initial residual = 0.0013053082, Final residual = 6.2396037e-05, No Iterations 57
time step continuity errors : sum local = 1.0285918e-06, global = -6.3389929e-20, cumulative = 4.1725207e-18
DICPCG:  Solving for p_rgh, Initial residual = 0.0049470936, Final residual = 0.0002285797, No Iterations 20
DICPCG:  Solving for p_rgh, Initial residual = 0.00023562122, Final residual = 7.6656514e-07, No Iterations 128
time step continuity errors : sum local = 1.0995224e-08, global = -4.3843938e-20, cumulative = 4.1286767e-18
ExecutionTime = 146.01 s  ClockTime = 160 s

Courant Number mean: 0.070577973 max: 0.57443639
Interface Courant Number mean: 0.0037110269 max: 0.57443639
deltaT = 0.00095238095
Time = 0.998095

smoothSolver:  Solving for alpha.phase1, Initial residual = 0.0021213366, Final residual = 1.579233e-10, No Iterations 3
Phase-1 volume fraction = 0.14199629  Min(alpha.phase1) = -5.6533516e-06  Max(alpha.phase1) = 1
MULES: Correcting alpha.phase1
MULES: Correcting alpha.phase1
Phase-1 volume fraction = 0.14199629  Min(alpha.phase1) = -2.0014143e-05  Max(alpha.phase1) = 1
smoothSolver:  Solving for Ux, Initial residual = 0.027831712, Final residual = 1.8620221e-07, No Iterations 2
smoothSolver:  Solving for Uy, Initial residual = 0.02905046, Final residual = 1.4921442e-07, No Iterations 2
DICPCG:  Solving for p_rgh, Initial residual = 0.32939036, Final residual = 0.012818747, No Iterations 2
DICPCG:  Solving for p_rgh, Initial residual = 0.012220148, Final residual = 0.00054798808, No Iterations 15
time step continuity errors : sum local = 9.0878202e-06, global = -8.1552332e-20, cumulative = 4.0471244e-18
DICPCG:  Solving for p_rgh, Initial residual = 0.025089398, Final residual = 0.0010795414, No Iterations 6
DICPCG:  Solving for p_rgh, Initial residual = 0.0010822644, Final residual = 5.393803e-05, No Iterations 54
time step continuity errors : sum local = 9.0026045e-07, global = 4.480764e-20, cumulative = 4.091932e-18
DICPCG:  Solving for p_rgh, Initial residual = 0.0026989781, Final residual = 0.00013373293, No Iterations 5
DICPCG:  Solving for p_rgh, Initial residual = 0.00013427525, Final residual = 9.7143746e-07, No Iterations 129
time step continuity errors : sum local = 1.6037484e-08, global = -3.6852715e-20, cumulative = 4.0550793e-18
ExecutionTime = 146.15 s  ClockTime = 161 s

Courant Number mean: 0.070572284 max: 0.54262831
Interface Courant Number mean: 0.0035954416 max: 0.52613987
deltaT = 0.00095238095
Time = 0.999048

smoothSolver:  Solving for alpha.phase1, Initial residual = 0.0020274296, Final residual = 1.1825337e-10, No Iterations 3
Phase-1 volume fraction = 0.14199629  Min(alpha.phase1) = -4.7388763e-06  Max(alpha.phase1) = 1
MULES: Correcting alpha.phase1
MULES: Correcting alpha.phase1
Phase-1 volume fraction = 0.14199629  Min(alpha.phase1) = -3.4260523e-05  Max(alpha.phase1) = 1
smoothSolver:  Solving for Ux, Initial residual = 0.028658077, Final residual = 2.6526668e-07, No Iterations 2
smoothSolver:  Solving for Uy, Initial residual = 0.027850151, Final residual = 2.0892182e-07, No Iterations 2
DICPCG:  Solving for p_rgh, Initial residual = 0.2688625, Final residual = 0.010605385, No Iterations 2
DICPCG:  Solving for p_rgh, Initial residual = 0.010310983, Final residual = 0.00045768973, No Iterations 46
time step continuity errors : sum local = 8.2564801e-06, global = 7.6676649e-20, cumulative = 4.131756e-18
DICPCG:  Solving for p_rgh, Initial residual = 0.021781362, Final residual = 0.0010588442, No Iterations 7
DICPCG:  Solving for p_rgh, Initial residual = 0.0010725845, Final residual = 5.2580458e-05, No Iterations 46
time step continuity errors : sum local = 1.0066209e-06, global = 1.9103174e-19, cumulative = 4.3227877e-18
DICPCG:  Solving for p_rgh, Initial residual = 0.0022367186, Final residual = 0.00011003741, No Iterations 7
DICPCG:  Solving for p_rgh, Initial residual = 0.00011399866, Final residual = 9.6866591e-07, No Iterations 130
time step continuity errors : sum local = 1.7000565e-08, global = -8.6795617e-20, cumulative = 4.2359921e-18
ExecutionTime = 146.3 s  ClockTime = 161 s

Courant Number mean: 0.070516608 max: 0.49300829
Interface Courant Number mean: 0.0034661122 max: 0.45501415
deltaT = 0.00095238095
Time = 1

smoothSolver:  Solving for alpha.phase1, Initial residual = 0.0020631116, Final residual = 1.3265711e-10, No Iterations 3
Phase-1 volume fraction = 0.14199629  Min(alpha.phase1) = -3.8854545e-06  Max(alpha.phase1) = 1
MULES: Correcting alpha.phase1
MULES: Correcting alpha.phase1
Phase-1 volume fraction = 0.14199629  Min(alpha.phase1) = -1.8184744e-05  Max(alpha.phase1) = 1
smoothSolver:  Solving for Ux, Initial residual = 0.028177097, Final residual = 2.1915593e-07, No Iterations 2
smoothSolver:  Solving for Uy, Initial residual = 0.026462224, Final residual = 1.8369978e-07, No Iterations 2
DICPCG:  Solving for p_rgh, Initial residual = 0.27249864, Final residual = 0.010663495, No Iterations 2
DICPCG:  Solving for p_rgh, Initial residual = 0.010990954, Final residual = 0.00049508676, No Iterations 44
time step continuity errors : sum local = 7.8342445e-06, global = 2.1530771e-19, cumulative = 4.4512998e-18
DICPCG:  Solving for p_rgh, Initial residual = 0.023725097, Final residual = 0.0010563646, No Iterations 6
DICPCG:  Solving for p_rgh, Initial residual = 0.0010638318, Final residual = 4.3451608e-05, No Iterations 67
time step continuity errors : sum local = 8.3130571e-07, global = -1.2277944e-20, cumulative = 4.4390218e-18
DICPCG:  Solving for p_rgh, Initial residual = 0.0031055575, Final residual = 0.00014263463, No Iterations 7
DICPCG:  Solving for p_rgh, Initial residual = 0.00015029346, Final residual = 8.2740408e-07, No Iterations 127
time step continuity errors : sum local = 1.2876306e-08, global = 6.5260019e-20, cumulative = 4.5042819e-18
ExecutionTime = 146.54 s  ClockTime = 161 s

End

