/*---------------------------------------------------------------------------*\
  =========                 |
  \\      /  F ield         | OpenFOAM: The Open Source CFD Toolbox
   \\    /   O peration     | Website:  https://openfoam.org
    \\  /    A nd           | Version:  9
     \\/     M anipulation  |
\*---------------------------------------------------------------------------*/
Build  : 9-c8374a4890ad
Exec   : checkMesh
Date   : Feb 05 2022
Time   : 16:34:56
Host   : "endeavouros"
PID    : 607070
I/O    : uncollated
Case   : /home/ariedinger/uni/gimap/openfoam/03wiki3weeksSeries/day11/01codeStreamBC/case/2Delbow_UparabolicInlet_timeDep
nProcs : 1
sigFpe : Enabling floating point exception trapping (FOAM_SIGFPE).
fileModificationChecking : Monitoring run-time modified files using timeStampMaster (fileModificationSkew 10)
allowSystemOperations : Allowing user-supplied system call operations

// * * * * * * * * * * * * * * * * * * * * * * * * * * * * * * * * * * * * * //
Create time

Create polyMesh for time = 0

Time = 0

Mesh stats
    points:           1074
    internal points:  0
    faces:            3290
    internal faces:   1300
    cells:            918
    faces per cell:   5
    boundary patches: 6
    point zones:      0
    face zones:       0
    cell zones:       0

Overall number of cells of each type:
    hexahedra:     0
    prisms:        918
    wedges:        0
    pyramids:      0
    tet wedges:    0
    tetrahedra:    0
    polyhedra:     0

Checking topology...
    Boundary definition OK.
    Cell to face addressing OK.
    Point usage OK.
    Upper triangular ordering OK.
    Face vertices OK.
    Number of regions: 1 (OK).

Checking patch topology for multiply connected surfaces...
    Patch               Faces    Points   Surface topology                  
    wall-4              100      206      ok (non-closed singly connected)  
    velocity-inlet-5    8        18       ok (non-closed singly connected)  
    velocity-inlet-6    4        10       ok (non-closed singly connected)  
    pressure-outlet-7   8        18       ok (non-closed singly connected)  
    wall-8              34       70       ok (non-closed singly connected)  
    frontAndBackPlanes  1836     1074     ok (non-closed singly connected)  

Checking geometry...
    Overall domain bounding box (0 -4.5385342 -0.93773832) (64.000008 64 0.93773832)
    Mesh has 2 geometric (non-empty/wedge) directions (1 1 0)
    Mesh has 2 solution (non-empty) directions (1 1 0)
    All edges aligned with or perpendicular to non-empty directions.
    Boundary openness (-1.036327e-18 2.5908175e-18 1.1514745e-19) OK.
    Max cell openness = 1.8718662e-16 OK.
    Max aspect ratio = 2.401348 OK.
    Minimum face area = 0.27821821. Maximum face area = 7.7236852.  Face area magnitudes OK.
    Min volume = 0.52179175. Max volume = 7.3635433.  Total volume = 3156.2962.  Cell volumes OK.
    Mesh non-orthogonality Max: 36.302021 average: 11.186815
    Non-orthogonality check OK.
    Face pyramids OK.
    Max skewness = 0.50024756 OK.
    Coupled point location match (average 0) OK.

Mesh OK.

End

