/*---------------------------------------------------------------------------*\
  =========                 |
  \\      /  F ield         | OpenFOAM: The Open Source CFD Toolbox
   \\    /   O peration     | Website:  https://openfoam.org
    \\  /    A nd           | Version:  9
     \\/     M anipulation  |
\*---------------------------------------------------------------------------*/
Build  : 9-c8374a4890ad
Exec   : interFoam
Date   : Feb 07 2022
Time   : 11:17:29
Host   : "endeavouros"
PID    : 138234
I/O    : uncollated
Case   : /home/ariedinger/uni/gimap/openfoam/03wiki3weeksSeries/day11/02codeStreamFieldInitialization/codeStream_INIT/rayleigh_taylor
nProcs : 1
sigFpe : Enabling floating point exception trapping (FOAM_SIGFPE).
fileModificationChecking : Monitoring run-time modified files using timeStampMaster (fileModificationSkew 10)
allowSystemOperations : Allowing user-supplied system call operations

// * * * * * * * * * * * * * * * * * * * * * * * * * * * * * * * * * * * * * //
Create time

Create mesh for time = 0


PIMPLE: No convergence criteria found


PIMPLE: Operating solver in transient mode with 1 outer corrector
PIMPLE: Operating solver in PISO mode


Reading field p_rgh

Reading field U

Reading/calculating face flux field phi

Reading transportProperties

Using #codeStream at line 21 in file "/home/ariedinger/uni/gimap/openfoam/03wiki3weeksSeries/day11/02codeStreamFieldInitialization/codeStream_INIT/rayleigh_taylor/0/alpha.phase1"
Using #codeStream with "/home/ariedinger/uni/gimap/openfoam/03wiki3weeksSeries/day11/02codeStreamFieldInitialization/codeStream_INIT/rayleigh_taylor/dynamicCode/platforms/linux64GccDPInt32Opt/lib/libcodeStream_0bf240cce0d4fea1324f2eb9c4fc8e93985832c4.so"
Creating new library in "dynamicCode/_0bf240cce0d4fea1324f2eb9c4fc8e93985832c4/platforms/linux64GccDPInt32Opt/lib/libcodeStream_0bf240cce0d4fea1324f2eb9c4fc8e93985832c4.so"
"/opt/OpenFOAM/OpenFOAM-9/etc/codeTemplates/dynamicCode/codeStreamTemplate.C" "/home/ariedinger/uni/gimap/openfoam/03wiki3weeksSeries/day11/02codeStreamFieldInitialization/codeStream_INIT/rayleigh_taylor/dynamicCode/_0bf240cce0d4fea1324f2eb9c4fc8e93985832c4/codeStreamTemplate.C"
Invoking "wmake -s libso /home/ariedinger/uni/gimap/openfoam/03wiki3weeksSeries/day11/02codeStreamFieldInitialization/codeStream_INIT/rayleigh_taylor/dynamicCode/_0bf240cce0d4fea1324f2eb9c4fc8e93985832c4"
wmake libso /home/ariedinger/uni/gimap/openfoam/03wiki3weeksSeries/day11/02codeStreamFieldInitialization/codeStream_INIT/rayleigh_taylor/dynamicCode/_0bf240cce0d4fea1324f2eb9c4fc8e93985832c4
    wmkdep: codeStreamTemplate.C
    Ctoo: codeStreamTemplate.C
    ld: /home/ariedinger/uni/gimap/openfoam/03wiki3weeksSeries/day11/02codeStreamFieldInitialization/codeStream_INIT/rayleigh_taylor/dynamicCode/_0bf240cce0d4fea1324f2eb9c4fc8e93985832c4/../platforms/linux64GccDPInt32Opt/lib/libcodeStream_0bf240cce0d4fea1324f2eb9c4fc8e93985832c4.so
codeStream : dictionary:"/home/ariedinger/uni/gimap/openfoam/03wiki3weeksSeries/day11/02codeStreamFieldInitialization/codeStream_INIT/rayleigh_taylor/0/alpha.phase1" master-only-reading:0

on processor 0 have masterSize:696768 and localSize:696768

on processor 0 after waiting: have masterSize:696768 and localSize:696768
Opening cached dictionary:"/home/ariedinger/uni/gimap/openfoam/03wiki3weeksSeries/day11/02codeStreamFieldInitialization/codeStream_INIT/rayleigh_taylor/dynamicCode/platforms/linux64GccDPInt32Opt/lib/libcodeStream_0bf240cce0d4fea1324f2eb9c4fc8e93985832c4.so"
codeStream : dictionary:"/home/ariedinger/uni/gimap/openfoam/03wiki3weeksSeries/day11/02codeStreamFieldInitialization/codeStream_INIT/rayleigh_taylor/0/alpha.phase1" master-only-reading:0
Selecting incompressible transport model Newtonian
Selecting incompressible transport model Newtonian
No phase change: phaseChangeProperties not found
Selecting phaseChange model none
Selecting turbulence model type laminar
Selecting laminar stress model Stokes

Reading g

Reading hRef
Calculating field g.h

No MRF models present

No fvModels present
No fvConstraints present
GAMGPCG:  Solving for pcorr, Initial residual = 0, Final residual = 0, No Iterations 0
GAMGPCG:  Solving for pcorr, Initial residual = 0, Final residual = 0, No Iterations 0
time step continuity errors : sum local = 0, global = 0, cumulative = 0
Courant Number mean: 0 max: 0

Starting time loop

Courant Number mean: 0 max: 0
Interface Courant Number mean: 0 max: 0
deltaT = 0.00119048
Time = 0.00119048

smoothSolver:  Solving for alpha.phase1, Initial residual = 0, Final residual = 0, No Iterations 0
Phase-1 volume fraction = 0.5  Min(alpha.phase1) = 0  Max(alpha.phase1) = 1
MULES: Correcting alpha.phase1
MULES: Correcting alpha.phase1
Phase-1 volume fraction = 0.5  Min(alpha.phase1) = 0  Max(alpha.phase1) = 1
smoothSolver:  Solving for Ux, Initial residual = 1, Final residual = 5.06422e-08, No Iterations 5
smoothSolver:  Solving for Uy, Initial residual = 1, Final residual = 5.99389e-08, No Iterations 5
GAMG:  Solving for p_rgh, Initial residual = 1, Final residual = 0.0241461, No Iterations 2
GAMG:  Solving for p_rgh, Initial residual = 0.011998, Final residual = 0.000484529, No Iterations 3
time step continuity errors : sum local = 2.99913e-08, global = -1.67589e-23, cumulative = -1.67589e-23
GAMG:  Solving for p_rgh, Initial residual = 0.0119512, Final residual = 0.000221095, No Iterations 3
GAMG:  Solving for p_rgh, Initial residual = 0.000224217, Final residual = 9.38146e-06, No Iterations 4
time step continuity errors : sum local = 5.49658e-10, global = 1.32023e-23, cumulative = -3.55653e-24
GAMG:  Solving for p_rgh, Initial residual = 0.000199665, Final residual = 7.27247e-06, No Iterations 2
GAMGPCG:  Solving for p_rgh, Initial residual = 7.96192e-06, Final residual = 6.44622e-07, No Iterations 2
time step continuity errors : sum local = 3.411e-11, global = -4.46201e-26, cumulative = -3.60115e-24
ExecutionTime = 0.16 s  ClockTime = 7 s

Courant Number mean: 1.21101e-05 max: 0.00026091
Interface Courant Number mean: 0 max: 0
deltaT = 0.00139456
Time = 0.00258503

smoothSolver:  Solving for alpha.phase1, Initial residual = 1.07423e-06, Final residual = 5.07758e-15, No Iterations 1
Phase-1 volume fraction = 0.5  Min(alpha.phase1) = 0  Max(alpha.phase1) = 1
MULES: Correcting alpha.phase1
MULES: Correcting alpha.phase1
Phase-1 volume fraction = 0.5  Min(alpha.phase1) = -4.40045e-33  Max(alpha.phase1) = 1
smoothSolver:  Solving for Ux, Initial residual = 0.368651, Final residual = 2.68073e-07, No Iterations 4
smoothSolver:  Solving for Uy, Initial residual = 0.368713, Final residual = 2.99188e-07, No Iterations 4
GAMG:  Solving for p_rgh, Initial residual = 0.0065882, Final residual = 0.000150629, No Iterations 2
GAMG:  Solving for p_rgh, Initial residual = 0.000150985, Final residual = 7.071e-06, No Iterations 3
time step continuity errors : sum local = 5.52809e-10, global = -2.28303e-23, cumulative = -2.64314e-23
GAMG:  Solving for p_rgh, Initial residual = 0.000115814, Final residual = 2.62373e-06, No Iterations 3
GAMG:  Solving for p_rgh, Initial residual = 2.65351e-06, Final residual = 8.79326e-07, No Iterations 1
time step continuity errors : sum local = 7.20907e-11, global = 5.24781e-23, cumulative = 2.60467e-23
GAMG:  Solving for p_rgh, Initial residual = 2.78316e-06, Final residual = 5.22716e-07, No Iterations 1
GAMGPCG:  Solving for p_rgh, Initial residual = 5.67438e-07, Final residual = 5.67438e-07, No Iterations 0
time step continuity errors : sum local = 4.419e-11, global = -3.41909e-24, cumulative = 2.26276e-23
ExecutionTime = 0.24 s  ClockTime = 7 s

Courant Number mean: 3.05524e-05 max: 0.000634224
Interface Courant Number mean: 0 max: 0
deltaT = 0.001635
Time = 0.00422003

smoothSolver:  Solving for alpha.phase1, Initial residual = 2.52851e-06, Final residual = 6.42118e-14, No Iterations 1
Phase-1 volume fraction = 0.5  Min(alpha.phase1) = 0  Max(alpha.phase1) = 1
MULES: Correcting alpha.phase1
MULES: Correcting alpha.phase1
Phase-1 volume fraction = 0.5  Min(alpha.phase1) = 0  Max(alpha.phase1) = 1
smoothSolver:  Solving for Ux, Initial residual = 0.238994, Final residual = 3.17206e-07, No Iterations 4
smoothSolver:  Solving for Uy, Initial residual = 0.239362, Final residual = 3.50339e-07, No Iterations 4
GAMG:  Solving for p_rgh, Initial residual = 0.00293162, Final residual = 6.52122e-05, No Iterations 2
GAMG:  Solving for p_rgh, Initial residual = 6.54574e-05, Final residual = 2.89086e-06, No Iterations 3
time step continuity errors : sum local = 3.05735e-10, global = -6.1941e-23, cumulative = -3.93134e-23
GAMG:  Solving for p_rgh, Initial residual = 4.99929e-05, Final residual = 2.44441e-06, No Iterations 2
GAMG:  Solving for p_rgh, Initial residual = 2.46467e-06, Final residual = 7.99622e-07, No Iterations 1
time step continuity errors : sum local = 8.69577e-11, global = -7.14132e-23, cumulative = -1.10727e-22
GAMG:  Solving for p_rgh, Initial residual = 1.7069e-06, Final residual = 3.8083e-07, No Iterations 1
GAMGPCG:  Solving for p_rgh, Initial residual = 4.08707e-07, Final residual = 4.08707e-07, No Iterations 0
time step continuity errors : sum local = 4.30712e-11, global = -7.76442e-23, cumulative = -1.88371e-22
ExecutionTime = 0.32 s  ClockTime = 7 s

Courant Number mean: 5.79966e-05 max: 0.00116906
Interface Courant Number mean: 0 max: 0
deltaT = 0.0019075
Time = 0.00612753

smoothSolver:  Solving for alpha.phase1, Initial residual = 4.5344e-06, Final residual = 3.62698e-13, No Iterations 1
Phase-1 volume fraction = 0.5  Min(alpha.phase1) = 0  Max(alpha.phase1) = 1
MULES: Correcting alpha.phase1
MULES: Correcting alpha.phase1
Phase-1 volume fraction = 0.5  Min(alpha.phase1) = 0  Max(alpha.phase1) = 1
smoothSolver:  Solving for Ux, Initial residual = 0.182715, Final residual = 4.33148e-07, No Iterations 4
smoothSolver:  Solving for Uy, Initial residual = 0.183314, Final residual = 4.81552e-07, No Iterations 4
GAMG:  Solving for p_rgh, Initial residual = 0.00247449, Final residual = 5.12497e-05, No Iterations 2
GAMG:  Solving for p_rgh, Initial residual = 5.1382e-05, Final residual = 1.2348e-06, No Iterations 4
time step continuity errors : sum local = 1.91316e-10, global = 2.0935e-23, cumulative = -1.67436e-22
GAMG:  Solving for p_rgh, Initial residual = 4.71684e-05, Final residual = 9.65538e-07, No Iterations 3
GAMG:  Solving for p_rgh, Initial residual = 9.97448e-07, Final residual = 9.97448e-07, No Iterations 0
time step continuity errors : sum local = 1.40408e-10, global = -2.51075e-22, cumulative = -4.18511e-22
GAMG:  Solving for p_rgh, Initial residual = 2.12667e-06, Final residual = 4.31763e-07, No Iterations 1
GAMGPCG:  Solving for p_rgh, Initial residual = 4.80924e-07, Final residual = 4.80924e-07, No Iterations 0
time step continuity errors : sum local = 6.76983e-11, global = -9.2593e-23, cumulative = -5.11104e-22
ExecutionTime = 0.41 s  ClockTime = 7 s

Courant Number mean: 9.75284e-05 max: 0.00191685
Interface Courant Number mean: 0 max: 0
deltaT = 0.00219362
Time = 0.00832115

smoothSolver:  Solving for alpha.phase1, Initial residual = 7.2015e-06, Final residual = 1.43335e-12, No Iterations 1
Phase-1 volume fraction = 0.5  Min(alpha.phase1) = 0  Max(alpha.phase1) = 1
MULES: Correcting alpha.phase1
MULES: Correcting alpha.phase1
Phase-1 volume fraction = 0.5  Min(alpha.phase1) = -7.12874e-72  Max(alpha.phase1) = 1
smoothSolver:  Solving for Ux, Initial residual = 0.150058, Final residual = 5.97079e-07, No Iterations 4
smoothSolver:  Solving for Uy, Initial residual = 0.150752, Final residual = 6.67899e-07, No Iterations 4
GAMG:  Solving for p_rgh, Initial residual = 0.0025082, Final residual = 5.23625e-05, No Iterations 2
GAMG:  Solving for p_rgh, Initial residual = 5.24891e-05, Final residual = 2.22866e-06, No Iterations 3
time step continuity errors : sum local = 4.0926e-10, global = 5.30318e-23, cumulative = -4.58072e-22
GAMG:  Solving for p_rgh, Initial residual = 6.70816e-05, Final residual = 3.31244e-06, No Iterations 2
GAMG:  Solving for p_rgh, Initial residual = 3.32579e-06, Final residual = 3.95972e-07, No Iterations 2
time step continuity errors : sum local = 7.21689e-11, global = 9.51793e-23, cumulative = -3.62893e-22
GAMG:  Solving for p_rgh, Initial residual = 2.38636e-06, Final residual = 3.4492e-07, No Iterations 1
GAMGPCG:  Solving for p_rgh, Initial residual = 3.55086e-07, Final residual = 3.55086e-07, No Iterations 0
time step continuity errors : sum local = 6.47289e-11, global = -7.92376e-23, cumulative = -4.42131e-22
ExecutionTime = 0.49 s  ClockTime = 7 s

Courant Number mean: 0.000151351 max: 0.00290272
Interface Courant Number mean: 0 max: 0
deltaT = 0.00260493
Time = 0.0109261

smoothSolver:  Solving for alpha.phase1, Initial residual = 1.1209e-05, Final residual = 5.32445e-12, No Iterations 1
Phase-1 volume fraction = 0.5  Min(alpha.phase1) = 0  Max(alpha.phase1) = 1
MULES: Correcting alpha.phase1
MULES: Correcting alpha.phase1
Phase-1 volume fraction = 0.5  Min(alpha.phase1) = -4.22633e-61  Max(alpha.phase1) = 1
smoothSolver:  Solving for Ux, Initial residual = 0.133397, Final residual = 9.96536e-07, No Iterations 4
smoothSolver:  Solving for Uy, Initial residual = 0.134246, Final residual = 9.73941e-08, No Iterations 5
GAMG:  Solving for p_rgh, Initial residual = 0.00334421, Final residual = 6.92545e-05, No Iterations 2
GAMG:  Solving for p_rgh, Initial residual = 6.95594e-05, Final residual = 3.44721e-06, No Iterations 3
time step continuity errors : sum local = 8.67495e-10, global = 8.16411e-22, cumulative = 3.7428e-22
GAMG:  Solving for p_rgh, Initial residual = 9.48328e-05, Final residual = 2.45388e-06, No Iterations 3
GAMG:  Solving for p_rgh, Initial residual = 2.50464e-06, Final residual = 9.83235e-07, No Iterations 1
time step continuity errors : sum local = 2.67801e-10, global = -1.04375e-21, cumulative = -6.69471e-22
GAMG:  Solving for p_rgh, Initial residual = 4.58097e-06, Final residual = 8.51224e-07, No Iterations 1
GAMGPCG:  Solving for p_rgh, Initial residual = 9.405e-07, Final residual = 9.405e-07, No Iterations 0
time step continuity errors : sum local = 2.34535e-10, global = -4.38381e-22, cumulative = -1.10785e-21
ExecutionTime = 0.57 s  ClockTime = 7 s

Courant Number mean: 0.000234638 max: 0.00438981
Interface Courant Number mean: 0 max: 0
deltaT = 0.00300569
Time = 0.0139318

smoothSolver:  Solving for alpha.phase1, Initial residual = 1.64252e-05, Final residual = 1.65524e-11, No Iterations 1
Phase-1 volume fraction = 0.5  Min(alpha.phase1) = 0  Max(alpha.phase1) = 1
MULES: Correcting alpha.phase1
MULES: Correcting alpha.phase1
Phase-1 volume fraction = 0.5  Min(alpha.phase1) = -1.33542e-57  Max(alpha.phase1) = 1
smoothSolver:  Solving for Ux, Initial residual = 0.118918, Final residual = 1.48647e-07, No Iterations 5
smoothSolver:  Solving for Uy, Initial residual = 0.119877, Final residual = 1.67844e-07, No Iterations 5
GAMG:  Solving for p_rgh, Initial residual = 0.00476111, Final residual = 0.000103779, No Iterations 2
GAMG:  Solving for p_rgh, Initial residual = 0.000104446, Final residual = 2.25204e-06, No Iterations 4
time step continuity errors : sum local = 7.35728e-10, global = -9.87451e-22, cumulative = -2.0953e-21
GAMG:  Solving for p_rgh, Initial residual = 0.000155643, Final residual = 4.51005e-06, No Iterations 3
GAMG:  Solving for p_rgh, Initial residual = 4.55638e-06, Final residual = 8.41619e-07, No Iterations 2
time step continuity errors : sum local = 2.79065e-10, global = -2.54134e-22, cumulative = -2.34944e-21
GAMG:  Solving for p_rgh, Initial residual = 7.22498e-06, Final residual = 3.62726e-07, No Iterations 2
GAMGPCG:  Solving for p_rgh, Initial residual = 3.63138e-07, Final residual = 3.63138e-07, No Iterations 0
time step continuity errors : sum local = 1.16829e-10, global = -6.86695e-22, cumulative = -3.03613e-21
ExecutionTime = 0.66 s  ClockTime = 7 s

Courant Number mean: 0.000343331 max: 0.00627982
Interface Courant Number mean: 0 max: 0
deltaT = 0.00360682
Time = 0.0175386

smoothSolver:  Solving for alpha.phase1, Initial residual = 2.43187e-05, Final residual = 5.3296e-11, No Iterations 1
Phase-1 volume fraction = 0.5  Min(alpha.phase1) = 0  Max(alpha.phase1) = 1
MULES: Correcting alpha.phase1
MULES: Correcting alpha.phase1
Phase-1 volume fraction = 0.5  Min(alpha.phase1) = -1.73832e-54  Max(alpha.phase1) = 1
smoothSolver:  Solving for Ux, Initial residual = 0.112427, Final residual = 3.16772e-07, No Iterations 5
smoothSolver:  Solving for Uy, Initial residual = 0.113576, Final residual = 3.61774e-07, No Iterations 5
GAMG:  Solving for p_rgh, Initial residual = 0.00642059, Final residual = 0.000144645, No Iterations 2
GAMG:  Solving for p_rgh, Initial residual = 0.00014547, Final residual = 3.45723e-06, No Iterations 4
time step continuity errors : sum local = 1.5552e-09, global = 1.84444e-22, cumulative = -2.85169e-21
GAMG:  Solving for p_rgh, Initial residual = 0.000229314, Final residual = 6.98492e-06, No Iterations 3
GAMG:  Solving for p_rgh, Initial residual = 7.02254e-06, Final residual = 5.12298e-07, No Iterations 3
time step continuity errors : sum local = 2.31988e-10, global = 1.17543e-21, cumulative = -1.67626e-21
GAMG:  Solving for p_rgh, Initial residual = 1.16291e-05, Final residual = 4.64615e-07, No Iterations 2
GAMGPCG:  Solving for p_rgh, Initial residual = 4.75924e-07, Final residual = 4.75924e-07, No Iterations 0
time step continuity errors : sum local = 2.10797e-10, global = -9.24503e-22, cumulative = -2.60076e-21
ExecutionTime = 0.74 s  ClockTime = 7 s

Courant Number mean: 0.000515894 max: 0.00920844
Interface Courant Number mean: 1.53654e-05 max: 0.00786727
deltaT = 0.00405768
Time = 0.0215963

smoothSolver:  Solving for alpha.phase1, Initial residual = 3.33235e-05, Final residual = 1.36615e-10, No Iterations 1
Phase-1 volume fraction = 0.5  Min(alpha.phase1) = 0  Max(alpha.phase1) = 1
MULES: Correcting alpha.phase1
MULES: Correcting alpha.phase1
Phase-1 volume fraction = 0.5  Min(alpha.phase1) = -6.31947e-52  Max(alpha.phase1) = 1
smoothSolver:  Solving for Ux, Initial residual = 0.101503, Final residual = 4.80982e-07, No Iterations 5
smoothSolver:  Solving for Uy, Initial residual = 0.102803, Final residual = 5.57049e-07, No Iterations 5
GAMG:  Solving for p_rgh, Initial residual = 0.00860629, Final residual = 0.000204522, No Iterations 2
GAMG:  Solving for p_rgh, Initial residual = 0.000205663, Final residual = 5.2846e-06, No Iterations 4
time step continuity errors : sum local = 2.89532e-09, global = 1.64634e-22, cumulative = -2.43613e-21
GAMG:  Solving for p_rgh, Initial residual = 0.000357221, Final residual = 1.15784e-05, No Iterations 3
GAMG:  Solving for p_rgh, Initial residual = 1.16468e-05, Final residual = 8.61021e-07, No Iterations 3
time step continuity errors : sum local = 4.80038e-10, global = 1.7234e-21, cumulative = -7.12722e-22
GAMG:  Solving for p_rgh, Initial residual = 1.93928e-05, Final residual = 7.48401e-07, No Iterations 2
GAMGPCG:  Solving for p_rgh, Initial residual = 7.69719e-07, Final residual = 7.69719e-07, No Iterations 0
time step continuity errors : sum local = 4.1519e-10, global = -1.44519e-21, cumulative = -2.15791e-21
ExecutionTime = 0.83 s  ClockTime = 7 s

Courant Number mean: 0.000711135 max: 0.0123761
Interface Courant Number mean: 3.22801e-05 max: 0.0107496
deltaT = 0.00473396
Time = 0.0263302

smoothSolver:  Solving for alpha.phase1, Initial residual = 4.63397e-05, Final residual = 3.67413e-10, No Iterations 1
Phase-1 volume fraction = 0.5  Min(alpha.phase1) = 0  Max(alpha.phase1) = 1
MULES: Correcting alpha.phase1
MULES: Correcting alpha.phase1
Phase-1 volume fraction = 0.5  Min(alpha.phase1) = -2.80304e-49  Max(alpha.phase1) = 1
smoothSolver:  Solving for Ux, Initial residual = 0.0965175, Final residual = 8.90415e-07, No Iterations 5
smoothSolver:  Solving for Uy, Initial residual = 0.0980458, Final residual = 1.54841e-07, No Iterations 6
GAMG:  Solving for p_rgh, Initial residual = 0.0117036, Final residual = 0.000281001, No Iterations 2
GAMG:  Solving for p_rgh, Initial residual = 0.000283165, Final residual = 7.52812e-06, No Iterations 4
time step continuity errors : sum local = 5.33446e-09, global = 2.40806e-21, cumulative = 2.50146e-22
GAMG:  Solving for p_rgh, Initial residual = 0.000546487, Final residual = 1.8102e-05, No Iterations 3
GAMG:  Solving for p_rgh, Initial residual = 1.82411e-05, Final residual = 6.53497e-07, No Iterations 4
time step continuity errors : sum local = 4.80355e-10, global = 1.61656e-21, cumulative = 1.8667e-21
GAMG:  Solving for p_rgh, Initial residual = 3.15403e-05, Final residual = 1.14592e-06, No Iterations 2
GAMGPCG:  Solving for p_rgh, Initial residual = 1.17678e-06, Final residual = 2.60022e-07, No Iterations 1
time step continuity errors : sum local = 1.89573e-10, global = 3.62244e-21, cumulative = 5.48914e-21
ExecutionTime = 0.92 s  ClockTime = 7 s

Courant Number mean: 0.00100691 max: 0.0170652
Interface Courant Number mean: 5.23299e-05 max: 0.0150602
deltaT = 0.00473396
Time = 0.0310642

smoothSolver:  Solving for alpha.phase1, Initial residual = 5.47163e-05, Final residual = 6.07806e-10, No Iterations 1
Phase-1 volume fraction = 0.5  Min(alpha.phase1) = 0  Max(alpha.phase1) = 1
MULES: Correcting alpha.phase1
MULES: Correcting alpha.phase1
Phase-1 volume fraction = 0.5  Min(alpha.phase1) = -8.93181e-48  Max(alpha.phase1) = 1
smoothSolver:  Solving for Ux, Initial residual = 0.0805325, Final residual = 7.52825e-07, No Iterations 5
smoothSolver:  Solving for Uy, Initial residual = 0.0821269, Final residual = 8.95863e-07, No Iterations 5
GAMG:  Solving for p_rgh, Initial residual = 0.0137656, Final residual = 0.000339033, No Iterations 2
GAMG:  Solving for p_rgh, Initial residual = 0.000341355, Final residual = 9.65414e-06, No Iterations 4
time step continuity errors : sum local = 6.71129e-09, global = 2.2042e-21, cumulative = 7.69334e-21
GAMG:  Solving for p_rgh, Initial residual = 0.000674589, Final residual = 2.16645e-05, No Iterations 3
GAMG:  Solving for p_rgh, Initial residual = 2.18366e-05, Final residual = 7.94515e-07, No Iterations 4
time step continuity errors : sum local = 5.73266e-10, global = 2.25667e-21, cumulative = 9.95001e-21
GAMG:  Solving for p_rgh, Initial residual = 3.74603e-05, Final residual = 1.29735e-06, No Iterations 2
GAMGPCG:  Solving for p_rgh, Initial residual = 1.33481e-06, Final residual = 3.03869e-07, No Iterations 1
time step continuity errors : sum local = 2.16253e-10, global = -3.09377e-21, cumulative = 6.85625e-21
ExecutionTime = 1.01 s  ClockTime = 7 s

Courant Number mean: 0.00118351 max: 0.0195628
Interface Courant Number mean: 6.5627e-05 max: 0.0175128
deltaT = 0.00473396
Time = 0.0357981

smoothSolver:  Solving for alpha.phase1, Initial residual = 6.27193e-05, Final residual = 9.22841e-10, No Iterations 1
Phase-1 volume fraction = 0.5  Min(alpha.phase1) = 0  Max(alpha.phase1) = 1
MULES: Correcting alpha.phase1
MULES: Correcting alpha.phase1
Phase-1 volume fraction = 0.5  Min(alpha.phase1) = -1.62491e-46  Max(alpha.phase1) = 1
smoothSolver:  Solving for Ux, Initial residual = 0.0690641, Final residual = 6.54471e-07, No Iterations 5
smoothSolver:  Solving for Uy, Initial residual = 0.0707563, Final residual = 7.8801e-07, No Iterations 5
GAMG:  Solving for p_rgh, Initial residual = 0.0155433, Final residual = 0.000394105, No Iterations 2
GAMG:  Solving for p_rgh, Initial residual = 0.000397215, Final residual = 1.16167e-05, No Iterations 4
time step continuity errors : sum local = 7.85882e-09, global = -1.68041e-21, cumulative = 5.17584e-21
GAMG:  Solving for p_rgh, Initial residual = 0.000787185, Final residual = 2.51466e-05, No Iterations 3
GAMG:  Solving for p_rgh, Initial residual = 2.54201e-05, Final residual = 9.52636e-07, No Iterations 4
time step continuity errors : sum local = 6.70766e-10, global = 1.32473e-21, cumulative = 6.50057e-21
GAMG:  Solving for p_rgh, Initial residual = 4.22989e-05, Final residual = 1.47402e-06, No Iterations 2
GAMGPCG:  Solving for p_rgh, Initial residual = 1.51629e-06, Final residual = 3.48411e-07, No Iterations 1
time step continuity errors : sum local = 2.41577e-10, global = 4.1742e-21, cumulative = 1.06748e-20
ExecutionTime = 1.1 s  ClockTime = 7 s

Courant Number mean: 0.00135989 max: 0.0219634
Interface Courant Number mean: 8.41933e-05 max: 0.0199081
deltaT = 0.00473396
Time = 0.0405321

smoothSolver:  Solving for alpha.phase1, Initial residual = 7.04941e-05, Final residual = 1.32098e-09, No Iterations 1
Phase-1 volume fraction = 0.5  Min(alpha.phase1) = 0  Max(alpha.phase1) = 1
MULES: Correcting alpha.phase1
MULES: Correcting alpha.phase1
Phase-1 volume fraction = 0.5  Min(alpha.phase1) = -1.99751e-45  Max(alpha.phase1) = 1
smoothSolver:  Solving for Ux, Initial residual = 0.0604951, Final residual = 5.81063e-07, No Iterations 5
smoothSolver:  Solving for Uy, Initial residual = 0.0622371, Final residual = 7.0813e-07, No Iterations 5
GAMG:  Solving for p_rgh, Initial residual = 0.017459, Final residual = 0.000453335, No Iterations 2
GAMG:  Solving for p_rgh, Initial residual = 0.000457229, Final residual = 1.34883e-05, No Iterations 4
time step continuity errors : sum local = 8.85064e-09, global = -2.17818e-21, cumulative = 8.49659e-21
GAMG:  Solving for p_rgh, Initial residual = 0.000905508, Final residual = 2.87e-05, No Iterations 3
GAMG:  Solving for p_rgh, Initial residual = 2.91089e-05, Final residual = 1.13314e-06, No Iterations 4
time step continuity errors : sum local = 7.77183e-10, global = 1.49927e-21, cumulative = 9.99586e-21
GAMG:  Solving for p_rgh, Initial residual = 4.75756e-05, Final residual = 1.64706e-06, No Iterations 2
GAMGPCG:  Solving for p_rgh, Initial residual = 1.69327e-06, Final residual = 3.90021e-07, No Iterations 1
time step continuity errors : sum local = 2.63102e-10, global = -1.62851e-21, cumulative = 8.36735e-21
ExecutionTime = 1.2 s  ClockTime = 8 s

Courant Number mean: 0.00153642 max: 0.024288
Interface Courant Number mean: 9.36605e-05 max: 0.0222531
deltaT = 0.00473396
Time = 0.045266

smoothSolver:  Solving for alpha.phase1, Initial residual = 7.81477e-05, Final residual = 1.81054e-09, No Iterations 1
Phase-1 volume fraction = 0.5  Min(alpha.phase1) = 0  Max(alpha.phase1) = 1
MULES: Correcting alpha.phase1
MULES: Correcting alpha.phase1
Phase-1 volume fraction = 0.5  Min(alpha.phase1) = -1.84068e-44  Max(alpha.phase1) = 1
smoothSolver:  Solving for Ux, Initial residual = 0.0538793, Final residual = 5.24321e-07, No Iterations 5
smoothSolver:  Solving for Uy, Initial residual = 0.0556326, Final residual = 6.46303e-07, No Iterations 5
GAMG:  Solving for p_rgh, Initial residual = 0.0193817, Final residual = 0.000513815, No Iterations 2
GAMG:  Solving for p_rgh, Initial residual = 0.000518143, Final residual = 1.51289e-05, No Iterations 4
time step continuity errors : sum local = 9.65238e-09, global = -4.79623e-21, cumulative = 3.57112e-21
GAMG:  Solving for p_rgh, Initial residual = 0.00102844, Final residual = 3.23248e-05, No Iterations 3
GAMG:  Solving for p_rgh, Initial residual = 3.28555e-05, Final residual = 1.32087e-06, No Iterations 4
time step continuity errors : sum local = 8.82619e-10, global = -4.14571e-22, cumulative = 3.15655e-21
GAMG:  Solving for p_rgh, Initial residual = 5.29132e-05, Final residual = 1.8166e-06, No Iterations 2
GAMGPCG:  Solving for p_rgh, Initial residual = 1.86787e-06, Final residual = 4.33352e-07, No Iterations 1
time step continuity errors : sum local = 2.84522e-10, global = 1.14829e-21, cumulative = 4.30484e-21
ExecutionTime = 1.29 s  ClockTime = 8 s

Courant Number mean: 0.00171369 max: 0.0265533
Interface Courant Number mean: 0.000110313 max: 0.0245543
deltaT = 0.00473396
Time = 0.05

smoothSolver:  Solving for alpha.phase1, Initial residual = 8.59789e-05, Final residual = 2.40294e-09, No Iterations 1
Phase-1 volume fraction = 0.5  Min(alpha.phase1) = 0  Max(alpha.phase1) = 1
MULES: Correcting alpha.phase1
MULES: Correcting alpha.phase1
Phase-1 volume fraction = 0.5  Min(alpha.phase1) = -1.35998e-43  Max(alpha.phase1) = 1
smoothSolver:  Solving for Ux, Initial residual = 0.0486237, Final residual = 4.79226e-07, No Iterations 5
smoothSolver:  Solving for Uy, Initial residual = 0.0503595, Final residual = 5.97101e-07, No Iterations 5
GAMG:  Solving for p_rgh, Initial residual = 0.0210972, Final residual = 0.000572144, No Iterations 2
GAMG:  Solving for p_rgh, Initial residual = 0.0005773, Final residual = 1.60992e-05, No Iterations 4
time step continuity errors : sum local = 9.97063e-09, global = -1.31128e-21, cumulative = 2.99356e-21
GAMG:  Solving for p_rgh, Initial residual = 0.00114738, Final residual = 3.55869e-05, No Iterations 3
GAMG:  Solving for p_rgh, Initial residual = 3.62778e-05, Final residual = 1.52603e-06, No Iterations 4
time step continuity errors : sum local = 9.9266e-10, global = -6.21171e-21, cumulative = -3.21814e-21
GAMG:  Solving for p_rgh, Initial residual = 5.84784e-05, Final residual = 1.96179e-06, No Iterations 2
GAMGPCG:  Solving for p_rgh, Initial residual = 2.01633e-06, Final residual = 4.70043e-07, No Iterations 1
time step continuity errors : sum local = 3.00036e-10, global = -2.52501e-21, cumulative = -5.74315e-21
ExecutionTime = 1.44 s  ClockTime = 8 s

Courant Number mean: 0.0018917 max: 0.0287723
Interface Courant Number mean: 0.000123623 max: 0.0268177
deltaT = 0.00555556
Time = 0.0555556

smoothSolver:  Solving for alpha.phase1, Initial residual = 0.000110049, Final residual = 4.99481e-09, No Iterations 1
Phase-1 volume fraction = 0.5  Min(alpha.phase1) = 0  Max(alpha.phase1) = 1
MULES: Correcting alpha.phase1
MULES: Correcting alpha.phase1
Phase-1 volume fraction = 0.5  Min(alpha.phase1) = -1.09948e-41  Max(alpha.phase1) = 1
smoothSolver:  Solving for Ux, Initial residual = 0.0516857, Final residual = 1.70846e-07, No Iterations 6
smoothSolver:  Solving for Uy, Initial residual = 0.0536242, Final residual = 2.17028e-07, No Iterations 6
GAMG:  Solving for p_rgh, Initial residual = 0.0273313, Final residual = 0.00077622, No Iterations 2
GAMG:  Solving for p_rgh, Initial residual = 0.000786249, Final residual = 2.46177e-05, No Iterations 4
time step continuity errors : sum local = 1.95989e-08, global = -1.01968e-21, cumulative = -6.76283e-21
GAMG:  Solving for p_rgh, Initial residual = 0.00176171, Final residual = 5.88492e-05, No Iterations 3
GAMG:  Solving for p_rgh, Initial residual = 5.96339e-05, Final residual = 2.29781e-06, No Iterations 4
time step continuity errors : sum local = 1.90868e-09, global = -1.73704e-21, cumulative = -8.49987e-21
GAMG:  Solving for p_rgh, Initial residual = 9.65335e-05, Final residual = 3.61659e-06, No Iterations 2
GAMGPCG:  Solving for p_rgh, Initial residual = 3.71902e-06, Final residual = 8.56827e-07, No Iterations 1
time step continuity errors : sum local = 6.98447e-10, global = -5.32546e-21, cumulative = -1.38253e-20
ExecutionTime = 1.53 s  ClockTime = 8 s

Courant Number mean: 0.00246713 max: 0.036812
Interface Courant Number mean: 0.000158638 max: 0.034547
deltaT = 0.00634921
Time = 0.0619048

smoothSolver:  Solving for alpha.phase1, Initial residual = 0.00013814, Final residual = 9.76236e-09, No Iterations 1
Phase-1 volume fraction = 0.5  Min(alpha.phase1) = 0  Max(alpha.phase1) = 1
MULES: Correcting alpha.phase1
MULES: Correcting alpha.phase1
Phase-1 volume fraction = 0.5  Min(alpha.phase1) = -7.05365e-40  Max(alpha.phase1) = 1
smoothSolver:  Solving for Ux, Initial residual = 0.053416, Final residual = 3.42459e-07, No Iterations 6
smoothSolver:  Solving for Uy, Initial residual = 0.0554522, Final residual = 4.43126e-07, No Iterations 6
GAMG:  Solving for p_rgh, Initial residual = 0.0351464, Final residual = 0.00102907, No Iterations 2
GAMG:  Solving for p_rgh, Initial residual = 0.00104405, Final residual = 3.28537e-05, No Iterations 4
time step continuity errors : sum local = 3.16631e-08, global = 8.89623e-21, cumulative = -4.9291e-21
GAMG:  Solving for p_rgh, Initial residual = 0.00259211, Final residual = 8.64731e-05, No Iterations 3
GAMG:  Solving for p_rgh, Initial residual = 8.77178e-05, Final residual = 3.41394e-06, No Iterations 4
time step continuity errors : sum local = 3.43453e-09, global = -5.09491e-21, cumulative = -1.0024e-20
GAMG:  Solving for p_rgh, Initial residual = 0.000152467, Final residual = 5.5824e-06, No Iterations 2
GAMGPCG:  Solving for p_rgh, Initial residual = 5.73259e-06, Final residual = 2.39407e-07, No Iterations 2
time step continuity errors : sum local = 2.41995e-10, global = -3.27631e-21, cumulative = -1.33003e-20
ExecutionTime = 1.62 s  ClockTime = 8 s

Courant Number mean: 0.00314578 max: 0.046023
Interface Courant Number mean: 0.00019906 max: 0.0434444
deltaT = 0.00761905
Time = 0.0695238

smoothSolver:  Solving for alpha.phase1, Initial residual = 0.000182685, Final residual = 4.4193e-12, No Iterations 2
Phase-1 volume fraction = 0.5  Min(alpha.phase1) = 0  Max(alpha.phase1) = 1
MULES: Correcting alpha.phase1
MULES: Correcting alpha.phase1
Phase-1 volume fraction = 0.5  Min(alpha.phase1) = -1.17184e-37  Max(alpha.phase1) = 1
smoothSolver:  Solving for Ux, Initial residual = 0.0577546, Final residual = 8.86882e-07, No Iterations 6
smoothSolver:  Solving for Uy, Initial residual = 0.0600266, Final residual = 2.61697e-07, No Iterations 7
GAMG:  Solving for p_rgh, Initial residual = 0.0472553, Final residual = 0.00143736, No Iterations 2
GAMG:  Solving for p_rgh, Initial residual = 0.00145556, Final residual = 4.64663e-05, No Iterations 4
time step continuity errors : sum local = 5.92745e-08, global = -1.14013e-20, cumulative = -2.47016e-20
GAMG:  Solving for p_rgh, Initial residual = 0.00406965, Final residual = 0.000138782, No Iterations 3
GAMG:  Solving for p_rgh, Initial residual = 0.000140441, Final residual = 5.43422e-06, No Iterations 4
time step continuity errors : sum local = 7.18077e-09, global = 2.85981e-21, cumulative = -2.18418e-20
GAMG:  Solving for p_rgh, Initial residual = 0.000260906, Final residual = 9.56527e-06, No Iterations 2
GAMGPCG:  Solving for p_rgh, Initial residual = 9.83879e-06, Final residual = 4.20874e-07, No Iterations 2
time step continuity errors : sum local = 5.56827e-10, global = 2.14557e-21, cumulative = -1.96962e-20
ExecutionTime = 1.71 s  ClockTime = 8 s

Courant Number mean: 0.00425101 max: 0.0609023
Interface Courant Number mean: 0.000284419 max: 0.0577667
deltaT = 0.00761905
Time = 0.0771429

smoothSolver:  Solving for alpha.phase1, Initial residual = 0.000203062, Final residual = 7.55419e-12, No Iterations 2
Phase-1 volume fraction = 0.5  Min(alpha.phase1) = 0  Max(alpha.phase1) = 1
MULES: Correcting alpha.phase1
MULES: Correcting alpha.phase1
Phase-1 volume fraction = 0.5  Min(alpha.phase1) = -2.87959e-36  Max(alpha.phase1) = 1
smoothSolver:  Solving for Ux, Initial residual = 0.0522554, Final residual = 8.19039e-07, No Iterations 6
smoothSolver:  Solving for Uy, Initial residual = 0.0544782, Final residual = 2.47474e-07, No Iterations 7
GAMG:  Solving for p_rgh, Initial residual = 0.0521977, Final residual = 0.00159941, No Iterations 2
GAMG:  Solving for p_rgh, Initial residual = 0.00159436, Final residual = 4.69136e-05, No Iterations 4
time step continuity errors : sum local = 5.88023e-08, global = -8.43133e-22, cumulative = -2.05393e-20
GAMG:  Solving for p_rgh, Initial residual = 0.00448806, Final residual = 0.000146688, No Iterations 3
GAMG:  Solving for p_rgh, Initial residual = 0.000149584, Final residual = 6.26085e-06, No Iterations 4
time step continuity errors : sum local = 8.20122e-09, global = -7.41678e-22, cumulative = -2.1281e-20
GAMG:  Solving for p_rgh, Initial residual = 0.000285818, Final residual = 9.61334e-06, No Iterations 2
GAMGPCG:  Solving for p_rgh, Initial residual = 9.84085e-06, Final residual = 4.20887e-07, No Iterations 2
time step continuity errors : sum local = 5.48904e-10, global = 9.39858e-21, cumulative = -1.18824e-20
ExecutionTime = 1.81 s  ClockTime = 8 s

Courant Number mean: 0.00473471 max: 0.0665103
Interface Courant Number mean: 0.000327889 max: 0.0633636
deltaT = 0.00761905
Time = 0.0847619

smoothSolver:  Solving for alpha.phase1, Initial residual = 0.000223405, Final residual = 1.2194e-11, No Iterations 2
Phase-1 volume fraction = 0.5  Min(alpha.phase1) = 0  Max(alpha.phase1) = 1
MULES: Correcting alpha.phase1
MULES: Correcting alpha.phase1
Phase-1 volume fraction = 0.5  Min(alpha.phase1) = -3.60854e-35  Max(alpha.phase1) = 1
smoothSolver:  Solving for Ux, Initial residual = 0.0478719, Final residual = 7.66198e-07, No Iterations 6
smoothSolver:  Solving for Uy, Initial residual = 0.0500774, Final residual = 2.3654e-07, No Iterations 7
GAMG:  Solving for p_rgh, Initial residual = 0.0557856, Final residual = 0.00173448, No Iterations 2
GAMG:  Solving for p_rgh, Initial residual = 0.00172686, Final residual = 4.64487e-05, No Iterations 4
time step continuity errors : sum local = 5.94678e-08, global = 4.78649e-21, cumulative = -7.09594e-21
GAMG:  Solving for p_rgh, Initial residual = 0.00488766, Final residual = 0.000158362, No Iterations 3
GAMG:  Solving for p_rgh, Initial residual = 0.000160979, Final residual = 6.70656e-06, No Iterations 4
time step continuity errors : sum local = 8.74506e-09, global = -5.24752e-21, cumulative = -1.23435e-20
GAMG:  Solving for p_rgh, Initial residual = 0.000310284, Final residual = 1.01285e-05, No Iterations 2
GAMGPCG:  Solving for p_rgh, Initial residual = 1.04193e-05, Final residual = 4.80782e-07, No Iterations 2
time step continuity errors : sum local = 6.14932e-10, global = -1.76042e-20, cumulative = -2.99476e-20
ExecutionTime = 1.9 s  ClockTime = 8 s

Courant Number mean: 0.00522795 max: 0.0721099
Interface Courant Number mean: 0.000357089 max: 0.0689717
deltaT = 0.00761905
Time = 0.092381

smoothSolver:  Solving for alpha.phase1, Initial residual = 0.00024389, Final residual = 1.88122e-11, No Iterations 2
Phase-1 volume fraction = 0.5  Min(alpha.phase1) = 0  Max(alpha.phase1) = 1
MULES: Correcting alpha.phase1
MULES: Correcting alpha.phase1
Phase-1 volume fraction = 0.5  Min(alpha.phase1) = -1.37294e-30  Max(alpha.phase1) = 1
smoothSolver:  Solving for Ux, Initial residual = 0.0443359, Final residual = 7.24431e-07, No Iterations 6
smoothSolver:  Solving for Uy, Initial residual = 0.0465162, Final residual = 2.28553e-07, No Iterations 7
GAMG:  Solving for p_rgh, Initial residual = 0.0598781, Final residual = 0.0018773, No Iterations 2
GAMG:  Solving for p_rgh, Initial residual = 0.0018685, Final residual = 4.83368e-05, No Iterations 4
time step continuity errors : sum local = 6.1387e-08, global = -1.61703e-20, cumulative = -4.6118e-20
GAMG:  Solving for p_rgh, Initial residual = 0.00535313, Final residual = 0.000171432, No Iterations 3
GAMG:  Solving for p_rgh, Initial residual = 0.000174721, Final residual = 7.4279e-06, No Iterations 4
time step continuity errors : sum local = 9.64686e-09, global = -7.48817e-21, cumulative = -5.36061e-20
GAMG:  Solving for p_rgh, Initial residual = 0.000336367, Final residual = 1.09176e-05, No Iterations 2
GAMGPCG:  Solving for p_rgh, Initial residual = 1.11987e-05, Final residual = 5.11152e-07, No Iterations 2
time step continuity errors : sum local = 6.51376e-10, global = -1.1147e-21, cumulative = -5.47208e-20
ExecutionTime = 1.99 s  ClockTime = 8 s

Courant Number mean: 0.00573399 max: 0.077748
Interface Courant Number mean: 0.000388343 max: 0.0746369
deltaT = 0.00761905
Time = 0.1

smoothSolver:  Solving for alpha.phase1, Initial residual = 0.000264569, Final residual = 2.79434e-11, No Iterations 2
Phase-1 volume fraction = 0.5  Min(alpha.phase1) = 0  Max(alpha.phase1) = 1
MULES: Correcting alpha.phase1
MULES: Correcting alpha.phase1
Phase-1 volume fraction = 0.5  Min(alpha.phase1) = -1.86639e-31  Max(alpha.phase1) = 1
smoothSolver:  Solving for Ux, Initial residual = 0.0414799, Final residual = 6.89628e-07, No Iterations 6
smoothSolver:  Solving for Uy, Initial residual = 0.0435953, Final residual = 9.77782e-07, No Iterations 6
GAMG:  Solving for p_rgh, Initial residual = 0.0636624, Final residual = 0.00201669, No Iterations 2
GAMG:  Solving for p_rgh, Initial residual = 0.00200421, Final residual = 4.91043e-05, No Iterations 4
time step continuity errors : sum local = 6.17863e-08, global = -7.39415e-21, cumulative = -6.2115e-20
GAMG:  Solving for p_rgh, Initial residual = 0.0058001, Final residual = 0.000183034, No Iterations 3
GAMG:  Solving for p_rgh, Initial residual = 0.00018736, Final residual = 8.26375e-06, No Iterations 4
time step continuity errors : sum local = 1.07246e-08, global = 3.58607e-21, cumulative = -5.85289e-20
GAMG:  Solving for p_rgh, Initial residual = 0.000363272, Final residual = 1.18764e-05, No Iterations 2
GAMGPCG:  Solving for p_rgh, Initial residual = 1.21021e-05, Final residual = 5.38054e-07, No Iterations 2
time step continuity errors : sum local = 6.84843e-10, global = -2.1433e-20, cumulative = -7.99619e-20
ExecutionTime = 2.15 s  ClockTime = 9 s

Courant Number mean: 0.00625326 max: 0.0834628
Interface Courant Number mean: 0.000420741 max: 0.0803987
deltaT = 0.00833333
Time = 0.108333

smoothSolver:  Solving for alpha.phase1, Initial residual = 0.000312311, Final residual = 6.22051e-11, No Iterations 2
Phase-1 volume fraction = 0.5  Min(alpha.phase1) = 0  Max(alpha.phase1) = 1
MULES: Correcting alpha.phase1
MULES: Correcting alpha.phase1
Phase-1 volume fraction = 0.5  Min(alpha.phase1) = -4.40892e-30  Max(alpha.phase1) = 1
smoothSolver:  Solving for Ux, Initial residual = 0.0427098, Final residual = 2.5918e-07, No Iterations 7
smoothSolver:  Solving for Uy, Initial residual = 0.0449315, Final residual = 3.83801e-07, No Iterations 7
GAMG:  Solving for p_rgh, Initial residual = 0.0730332, Final residual = 0.00234077, No Iterations 2
GAMG:  Solving for p_rgh, Initial residual = 0.00232173, Final residual = 5.9264e-05, No Iterations 4
time step continuity errors : sum local = 8.81856e-08, global = -8.72452e-21, cumulative = -8.86864e-20
GAMG:  Solving for p_rgh, Initial residual = 0.00724813, Final residual = 0.000234679, No Iterations 3
GAMG:  Solving for p_rgh, Initial residual = 0.000239271, Final residual = 1.01234e-05, No Iterations 4
time step continuity errors : sum local = 1.52709e-08, global = -9.08316e-21, cumulative = -9.77696e-20
GAMG:  Solving for p_rgh, Initial residual = 0.000475919, Final residual = 1.53011e-05, No Iterations 2
GAMGPCG:  Solving for p_rgh, Initial residual = 1.57174e-05, Final residual = 7.58794e-07, No Iterations 2
time step continuity errors : sum local = 1.11716e-09, global = 1.17704e-20, cumulative = -8.59992e-20
ExecutionTime = 2.25 s  ClockTime = 9 s

Courant Number mean: 0.00748039 max: 0.0982927
Interface Courant Number mean: 0.000525132 max: 0.0949954
deltaT = 0.00833333
Time = 0.116667

smoothSolver:  Solving for alpha.phase1, Initial residual = 0.000338275, Final residual = 9.04404e-11, No Iterations 2
Phase-1 volume fraction = 0.5  Min(alpha.phase1) = 1.9942e-319  Max(alpha.phase1) = 1
MULES: Correcting alpha.phase1
MULES: Correcting alpha.phase1
Phase-1 volume fraction = 0.5  Min(alpha.phase1) = -2.67249e-29  Max(alpha.phase1) = 1
smoothSolver:  Solving for Ux, Initial residual = 0.0403694, Final residual = 2.51373e-07, No Iterations 7
smoothSolver:  Solving for Uy, Initial residual = 0.0425068, Final residual = 3.80018e-07, No Iterations 7
GAMG:  Solving for p_rgh, Initial residual = 0.0734907, Final residual = 0.00236429, No Iterations 2
GAMG:  Solving for p_rgh, Initial residual = 0.0023179, Final residual = 5.50729e-05, No Iterations 4
time step continuity errors : sum local = 8.18851e-08, global = -6.98958e-21, cumulative = -9.29888e-20
GAMG:  Solving for p_rgh, Initial residual = 0.00751288, Final residual = 0.00024093, No Iterations 3
GAMG:  Solving for p_rgh, Initial residual = 0.000247623, Final residual = 1.12017e-05, No Iterations 4
time step continuity errors : sum local = 1.73194e-08, global = -1.31465e-20, cumulative = -1.06135e-19
GAMG:  Solving for p_rgh, Initial residual = 0.000488018, Final residual = 1.60336e-05, No Iterations 2
GAMGPCG:  Solving for p_rgh, Initial residual = 1.62165e-05, Final residual = 7.16604e-07, No Iterations 2
time step continuity errors : sum local = 1.08312e-09, global = -7.46451e-21, cumulative = -1.136e-19
ExecutionTime = 2.34 s  ClockTime = 9 s

Courant Number mean: 0.00814277 max: 0.105431
Interface Courant Number mean: 0.000569889 max: 0.102256
deltaT = 0.00666667
Time = 0.123333

smoothSolver:  Solving for alpha.phase1, Initial residual = 0.000291891, Final residual = 4.36589e-11, No Iterations 2
Phase-1 volume fraction = 0.5  Min(alpha.phase1) = 7.19423e-318  Max(alpha.phase1) = 1
MULES: Correcting alpha.phase1
MULES: Correcting alpha.phase1
Phase-1 volume fraction = 0.5  Min(alpha.phase1) = -2.46554e-30  Max(alpha.phase1) = 1
smoothSolver:  Solving for Ux, Initial residual = 0.0308344, Final residual = 2.93572e-07, No Iterations 6
smoothSolver:  Solving for Uy, Initial residual = 0.0325285, Final residual = 4.35992e-07, No Iterations 6
GAMG:  Solving for p_rgh, Initial residual = 0.0573826, Final residual = 0.00179682, No Iterations 2
GAMG:  Solving for p_rgh, Initial residual = 0.00175852, Final residual = 4.05879e-05, No Iterations 4
time step continuity errors : sum local = 4.30821e-08, global = -2.94628e-21, cumulative = -1.16546e-19
GAMG:  Solving for p_rgh, Initial residual = 0.00517718, Final residual = 0.000157866, No Iterations 3
GAMG:  Solving for p_rgh, Initial residual = 0.000162838, Final residual = 6.66673e-06, No Iterations 4
time step continuity errors : sum local = 7.2857e-09, global = -5.58555e-21, cumulative = -1.22132e-19
GAMG:  Solving for p_rgh, Initial residual = 0.000293358, Final residual = 9.8883e-06, No Iterations 2
GAMGPCG:  Solving for p_rgh, Initial residual = 9.90382e-06, Final residual = 2.97426e-07, No Iterations 2
time step continuity errors : sum local = 3.10828e-10, global = 1.58546e-20, cumulative = -1.06277e-19
ExecutionTime = 2.44 s  ClockTime = 9 s

Courant Number mean: 0.00695008 max: 0.0889303
Interface Courant Number mean: 0.00058436 max: 0.0865751
deltaT = 0.00666667
Time = 0.13

smoothSolver:  Solving for alpha.phase1, Initial residual = 0.000309029, Final residual = 5.70734e-11, No Iterations 2
Phase-1 volume fraction = 0.5  Min(alpha.phase1) = 3.31584e-316  Max(alpha.phase1) = 1
MULES: Correcting alpha.phase1
MULES: Correcting alpha.phase1
Phase-1 volume fraction = 0.5  Min(alpha.phase1) = -1.55157e-29  Max(alpha.phase1) = 1
smoothSolver:  Solving for Ux, Initial residual = 0.0297915, Final residual = 2.88547e-07, No Iterations 6
smoothSolver:  Solving for Uy, Initial residual = 0.0314306, Final residual = 4.32949e-07, No Iterations 6
GAMG:  Solving for p_rgh, Initial residual = 0.0542692, Final residual = 0.00170524, No Iterations 2
GAMG:  Solving for p_rgh, Initial residual = 0.00167584, Final residual = 3.62001e-05, No Iterations 4
time step continuity errors : sum local = 3.86721e-08, global = -1.93048e-20, cumulative = -1.25582e-19
GAMG:  Solving for p_rgh, Initial residual = 0.00518592, Final residual = 0.000165182, No Iterations 3
GAMG:  Solving for p_rgh, Initial residual = 0.000170491, Final residual = 6.98414e-06, No Iterations 4
time step continuity errors : sum local = 7.82182e-09, global = -1.19733e-20, cumulative = -1.37555e-19
GAMG:  Solving for p_rgh, Initial residual = 0.000283755, Final residual = 1.00497e-05, No Iterations 2
GAMGPCG:  Solving for p_rgh, Initial residual = 1.00585e-05, Final residual = 3.36935e-07, No Iterations 2
time step continuity errors : sum local = 3.56343e-10, global = -2.0927e-20, cumulative = -1.58482e-19
ExecutionTime = 2.53 s  ClockTime = 9 s

Courant Number mean: 0.00739864 max: 0.093616
Interface Courant Number mean: 0.000684912 max: 0.0914694
deltaT = 0.00666667
Time = 0.136667

smoothSolver:  Solving for alpha.phase1, Initial residual = 0.000326439, Final residual = 7.39367e-11, No Iterations 2
Phase-1 volume fraction = 0.5  Min(alpha.phase1) = 1.02347e-314  Max(alpha.phase1) = 1
MULES: Correcting alpha.phase1
MULES: Correcting alpha.phase1
Phase-1 volume fraction = 0.5  Min(alpha.phase1) = -3.79269e-29  Max(alpha.phase1) = 1
smoothSolver:  Solving for Ux, Initial residual = 0.0288711, Final residual = 2.85163e-07, No Iterations 6
smoothSolver:  Solving for Uy, Initial residual = 0.030433, Final residual = 4.32094e-07, No Iterations 6
GAMG:  Solving for p_rgh, Initial residual = 0.0526155, Final residual = 0.00164143, No Iterations 2
GAMG:  Solving for p_rgh, Initial residual = 0.00161754, Final residual = 3.54844e-05, No Iterations 4
time step continuity errors : sum local = 3.88899e-08, global = 1.73622e-21, cumulative = -1.56746e-19
GAMG:  Solving for p_rgh, Initial residual = 0.00519327, Final residual = 0.000170809, No Iterations 3
GAMG:  Solving for p_rgh, Initial residual = 0.000172278, Final residual = 5.58648e-06, No Iterations 4
time step continuity errors : sum local = 6.14332e-09, global = 6.61814e-21, cumulative = -1.50128e-19
GAMG:  Solving for p_rgh, Initial residual = 0.000271273, Final residual = 1.00791e-05, No Iterations 2
GAMGPCG:  Solving for p_rgh, Initial residual = 1.01473e-05, Final residual = 2.5782e-07, No Iterations 2
time step continuity errors : sum local = 2.95223e-10, global = 1.76929e-20, cumulative = -1.32435e-19
ExecutionTime = 2.62 s  ClockTime = 9 s

Courant Number mean: 0.00786009 max: 0.098388
Interface Courant Number mean: 0.000726429 max: 0.0964777
deltaT = 0.00666667
Time = 0.143333

smoothSolver:  Solving for alpha.phase1, Initial residual = 0.000344379, Final residual = 9.49824e-11, No Iterations 2
Phase-1 volume fraction = 0.5  Min(alpha.phase1) = 2.41887e-313  Max(alpha.phase1) = 1
MULES: Correcting alpha.phase1
MULES: Correcting alpha.phase1
Phase-1 volume fraction = 0.5  Min(alpha.phase1) = -1.19227e-28  Max(alpha.phase1) = 1
smoothSolver:  Solving for Ux, Initial residual = 0.0280369, Final residual = 2.82322e-07, No Iterations 6
smoothSolver:  Solving for Uy, Initial residual = 0.0295427, Final residual = 4.31489e-07, No Iterations 6
GAMG:  Solving for p_rgh, Initial residual = 0.0513695, Final residual = 0.00157935, No Iterations 2
GAMG:  Solving for p_rgh, Initial residual = 0.00156132, Final residual = 7.71743e-05, No Iterations 3
time step continuity errors : sum local = 8.605e-08, global = 2.64128e-21, cumulative = -1.29794e-19
GAMG:  Solving for p_rgh, Initial residual = 0.00529735, Final residual = 0.000171653, No Iterations 3
GAMG:  Solving for p_rgh, Initial residual = 0.000173148, Final residual = 7.52335e-06, No Iterations 4
time step continuity errors : sum local = 8.70537e-09, global = 5.67605e-21, cumulative = -1.24118e-19
GAMG:  Solving for p_rgh, Initial residual = 0.000265554, Final residual = 1.10028e-05, No Iterations 2
GAMGPCG:  Solving for p_rgh, Initial residual = 1.13553e-05, Final residual = 3.0676e-07, No Iterations 2
time step continuity errors : sum local = 3.60034e-10, global = -1.06112e-21, cumulative = -1.25179e-19
ExecutionTime = 2.72 s  ClockTime = 9 s

Courant Number mean: 0.00833507 max: 0.103235
Interface Courant Number mean: 0.000808871 max: 0.101587
deltaT = 0.00333333
Time = 0.146667

smoothSolver:  Solving for alpha.phase1, Initial residual = 0.000181505, Final residual = 4.13256e-12, No Iterations 2
Phase-1 volume fraction = 0.5  Min(alpha.phase1) = -1.65473e-32  Max(alpha.phase1) = 1
MULES: Correcting alpha.phase1
MULES: Correcting alpha.phase1
Phase-1 volume fraction = 0.5  Min(alpha.phase1) = -1.65473e-32  Max(alpha.phase1) = 1
smoothSolver:  Solving for Ux, Initial residual = 0.0136619, Final residual = 3.39696e-07, No Iterations 4
smoothSolver:  Solving for Uy, Initial residual = 0.0144749, Final residual = 4.80834e-07, No Iterations 4
GAMG:  Solving for p_rgh, Initial residual = 0.0277146, Final residual = 0.000784296, No Iterations 2
GAMG:  Solving for p_rgh, Initial residual = 0.000780907, Final residual = 2.55905e-05, No Iterations 4
time step continuity errors : sum local = 8.65484e-09, global = 1.18542e-21, cumulative = -1.23993e-19
GAMG:  Solving for p_rgh, Initial residual = 0.00161493, Final residual = 4.39252e-05, No Iterations 3
GAMG:  Solving for p_rgh, Initial residual = 4.41891e-05, Final residual = 1.37229e-06, No Iterations 4
time step continuity errors : sum local = 4.48955e-10, global = -5.60286e-21, cumulative = -1.29596e-19
GAMG:  Solving for p_rgh, Initial residual = 5.10082e-05, Final residual = 1.9468e-06, No Iterations 2
GAMGPCG:  Solving for p_rgh, Initial residual = 2.00271e-06, Final residual = 4.36078e-07, No Iterations 1
time step continuity errors : sum local = 1.41904e-10, global = -4.3044e-21, cumulative = -1.33901e-19
ExecutionTime = 2.81 s  ClockTime = 9 s

Courant Number mean: 0.0042881 max: 0.0527921
Interface Courant Number mean: 0.000415392 max: 0.052076
deltaT = 0.00333333
Time = 0.15

smoothSolver:  Solving for alpha.phase1, Initial residual = 0.000186154, Final residual = 4.66009e-12, No Iterations 2
Phase-1 volume fraction = 0.5  Min(alpha.phase1) = -4.77273e-34  Max(alpha.phase1) = 1
MULES: Correcting alpha.phase1
MULES: Correcting alpha.phase1
Phase-1 volume fraction = 0.5  Min(alpha.phase1) = -4.77273e-34  Max(alpha.phase1) = 1
smoothSolver:  Solving for Ux, Initial residual = 0.0134867, Final residual = 3.38163e-07, No Iterations 4
smoothSolver:  Solving for Uy, Initial residual = 0.0143349, Final residual = 4.78116e-07, No Iterations 4
GAMG:  Solving for p_rgh, Initial residual = 0.0263221, Final residual = 0.000630563, No Iterations 2
GAMG:  Solving for p_rgh, Initial residual = 0.000628855, Final residual = 1.42955e-05, No Iterations 4
time step continuity errors : sum local = 4.92981e-09, global = 6.75898e-21, cumulative = -1.27142e-19
GAMG:  Solving for p_rgh, Initial residual = 0.00155789, Final residual = 4.6829e-05, No Iterations 3
GAMG:  Solving for p_rgh, Initial residual = 4.74419e-05, Final residual = 1.65046e-06, No Iterations 4
time step continuity errors : sum local = 5.53154e-10, global = -6.49589e-21, cumulative = -1.33637e-19
GAMG:  Solving for p_rgh, Initial residual = 4.77955e-05, Final residual = 1.72547e-06, No Iterations 2
GAMGPCG:  Solving for p_rgh, Initial residual = 1.81592e-06, Final residual = 5.62265e-07, No Iterations 1
time step continuity errors : sum local = 1.84027e-10, global = -7.45871e-21, cumulative = -1.41096e-19
ExecutionTime = 2.96 s  ClockTime = 9 s

Courant Number mean: 0.00441051 max: 0.0539857
Interface Courant Number mean: 0.000426482 max: 0.0533723
deltaT = 0.00384615
Time = 0.153846

smoothSolver:  Solving for alpha.phase1, Initial residual = 0.000220217, Final residual = 1.0587e-11, No Iterations 2
Phase-1 volume fraction = 0.5  Min(alpha.phase1) = -1.13342e-36  Max(alpha.phase1) = 1
MULES: Correcting alpha.phase1
MULES: Correcting alpha.phase1
Phase-1 volume fraction = 0.5  Min(alpha.phase1) = -1.13342e-36  Max(alpha.phase1) = 1
smoothSolver:  Solving for Ux, Initial residual = 0.0153671, Final residual = 6.40545e-07, No Iterations 4
smoothSolver:  Solving for Uy, Initial residual = 0.0163207, Final residual = 9.11934e-07, No Iterations 4
GAMG:  Solving for p_rgh, Initial residual = 0.0312566, Final residual = 0.000723121, No Iterations 2
GAMG:  Solving for p_rgh, Initial residual = 0.00072241, Final residual = 3.35342e-05, No Iterations 3
time step continuity errors : sum local = 1.4481e-08, global = 9.21181e-21, cumulative = -1.31884e-19
GAMG:  Solving for p_rgh, Initial residual = 0.00215249, Final residual = 6.35777e-05, No Iterations 3
GAMG:  Solving for p_rgh, Initial residual = 6.39569e-05, Final residual = 2.86207e-06, No Iterations 4
time step continuity errors : sum local = 1.2697e-09, global = -1.51316e-20, cumulative = -1.47016e-19
GAMG:  Solving for p_rgh, Initial residual = 6.98519e-05, Final residual = 2.82841e-06, No Iterations 2
GAMGPCG:  Solving for p_rgh, Initial residual = 2.95934e-06, Final residual = 7.58425e-07, No Iterations 1
time step continuity errors : sum local = 3.26769e-10, global = -8.12141e-22, cumulative = -1.47828e-19
ExecutionTime = 3.04 s  ClockTime = 9 s

Courant Number mean: 0.00525497 max: 0.0639141
Interface Courant Number mean: 0.000529551 max: 0.0633298
deltaT = 0.0041958
Time = 0.158042

smoothSolver:  Solving for alpha.phase1, Initial residual = 0.000247176, Final residual = 1.85632e-11, No Iterations 2
Phase-1 volume fraction = 0.5  Min(alpha.phase1) = 1.07307e-311  Max(alpha.phase1) = 1
MULES: Correcting alpha.phase1
MULES: Correcting alpha.phase1
Phase-1 volume fraction = 0.5  Min(alpha.phase1) = 1.07307e-311  Max(alpha.phase1) = 1
smoothSolver:  Solving for Ux, Initial residual = 0.0165357, Final residual = 9.39584e-07, No Iterations 4
smoothSolver:  Solving for Uy, Initial residual = 0.0175427, Final residual = 1.90984e-07, No Iterations 5
GAMG:  Solving for p_rgh, Initial residual = 0.0352474, Final residual = 0.000794056, No Iterations 2
GAMG:  Solving for p_rgh, Initial residual = 0.000793355, Final residual = 3.74239e-05, No Iterations 3
time step continuity errors : sum local = 1.83555e-08, global = -1.67541e-20, cumulative = -1.64582e-19
GAMG:  Solving for p_rgh, Initial residual = 0.00269407, Final residual = 7.82313e-05, No Iterations 3
GAMG:  Solving for p_rgh, Initial residual = 8.15403e-05, Final residual = 3.5191e-06, No Iterations 4
time step continuity errors : sum local = 1.81954e-09, global = 8.08948e-21, cumulative = -1.56493e-19
GAMG:  Solving for p_rgh, Initial residual = 8.99922e-05, Final residual = 3.60669e-06, No Iterations 2
GAMGPCG:  Solving for p_rgh, Initial residual = 3.61544e-06, Final residual = 7.80628e-07, No Iterations 1
time step continuity errors : sum local = 3.80781e-10, global = -6.26764e-21, cumulative = -1.6276e-19
ExecutionTime = 3.14 s  ClockTime = 10 s

Courant Number mean: 0.00593427 max: 0.0716834
Interface Courant Number mean: 0.000597153 max: 0.0711837
deltaT = 0.004662
Time = 0.162704

smoothSolver:  Solving for alpha.phase1, Initial residual = 0.000283174, Final residual = 3.59253e-11, No Iterations 2
Phase-1 volume fraction = 0.5  Min(alpha.phase1) = 6.06659e-311  Max(alpha.phase1) = 1
MULES: Correcting alpha.phase1
MULES: Correcting alpha.phase1
Phase-1 volume fraction = 0.5  Min(alpha.phase1) = -6.09473e-31  Max(alpha.phase1) = 1
smoothSolver:  Solving for Ux, Initial residual = 0.0180977, Final residual = 2.22498e-07, No Iterations 5
smoothSolver:  Solving for Uy, Initial residual = 0.0192008, Final residual = 3.33376e-07, No Iterations 5
GAMG:  Solving for p_rgh, Initial residual = 0.0419999, Final residual = 0.000891853, No Iterations 2
GAMG:  Solving for p_rgh, Initial residual = 0.000891124, Final residual = 4.12868e-05, No Iterations 3
time step continuity errors : sum local = 2.43989e-08, global = 6.225e-21, cumulative = -1.56535e-19
GAMG:  Solving for p_rgh, Initial residual = 0.00348242, Final residual = 0.000101644, No Iterations 3
GAMG:  Solving for p_rgh, Initial residual = 0.000105616, Final residual = 4.46325e-06, No Iterations 4
time step continuity errors : sum local = 2.7819e-09, global = 1.08266e-20, cumulative = -1.45709e-19
GAMG:  Solving for p_rgh, Initial residual = 0.000125129, Final residual = 4.8999e-06, No Iterations 2
GAMGPCG:  Solving for p_rgh, Initial residual = 4.91188e-06, Final residual = 1.48486e-07, No Iterations 2
time step continuity errors : sum local = 8.93323e-11, global = 9.00272e-22, cumulative = -1.44808e-19
ExecutionTime = 3.24 s  ClockTime = 10 s

Courant Number mean: 0.00684732 max: 0.0820956
Interface Courant Number mean: 0.000716029 max: 0.0817002
deltaT = 0.004662
Time = 0.167366

smoothSolver:  Solving for alpha.phase1, Initial residual = 0.000292831, Final residual = 4.21931e-11, No Iterations 2
Phase-1 volume fraction = 0.5  Min(alpha.phase1) = 3.53463e-310  Max(alpha.phase1) = 1
MULES: Correcting alpha.phase1
MULES: Correcting alpha.phase1
Phase-1 volume fraction = 0.5  Min(alpha.phase1) = -1.7852e-29  Max(alpha.phase1) = 1
smoothSolver:  Solving for Ux, Initial residual = 0.0178164, Final residual = 2.21857e-07, No Iterations 5
smoothSolver:  Solving for Uy, Initial residual = 0.0189166, Final residual = 3.34571e-07, No Iterations 5
GAMG:  Solving for p_rgh, Initial residual = 0.0443003, Final residual = 0.00089071, No Iterations 2
GAMG:  Solving for p_rgh, Initial residual = 0.000883358, Final residual = 4.31118e-05, No Iterations 3
time step continuity errors : sum local = 2.61338e-08, global = -1.47447e-20, cumulative = -1.59553e-19
GAMG:  Solving for p_rgh, Initial residual = 0.00364856, Final residual = 0.00010573, No Iterations 3
GAMG:  Solving for p_rgh, Initial residual = 0.00010643, Final residual = 3.49412e-06, No Iterations 4
time step continuity errors : sum local = 2.12703e-09, global = 2.67202e-21, cumulative = -1.56881e-19
GAMG:  Solving for p_rgh, Initial residual = 0.000131938, Final residual = 4.87571e-06, No Iterations 2
GAMGPCG:  Solving for p_rgh, Initial residual = 4.93294e-06, Final residual = 8.99047e-07, No Iterations 1
time step continuity errors : sum local = 5.26427e-10, global = -7.4781e-21, cumulative = -1.64359e-19
ExecutionTime = 3.33 s  ClockTime = 10 s

Courant Number mean: 0.00710615 max: 0.084554
Interface Courant Number mean: 0.00074148 max: 0.0843171
deltaT = 0.004662
Time = 0.172028

smoothSolver:  Solving for alpha.phase1, Initial residual = 0.00030264, Final residual = 4.94374e-11, No Iterations 2
Phase-1 volume fraction = 0.5  Min(alpha.phase1) = 2.09536e-309  Max(alpha.phase1) = 1
MULES: Correcting alpha.phase1
MULES: Correcting alpha.phase1
Phase-1 volume fraction = 0.5  Min(alpha.phase1) = -1.04445e-29  Max(alpha.phase1) = 1
smoothSolver:  Solving for Ux, Initial residual = 0.017552, Final residual = 2.21576e-07, No Iterations 5
smoothSolver:  Solving for Uy, Initial residual = 0.0186611, Final residual = 3.3655e-07, No Iterations 5
GAMG:  Solving for p_rgh, Initial residual = 0.0462712, Final residual = 0.000897919, No Iterations 2
GAMG:  Solving for p_rgh, Initial residual = 0.000890475, Final residual = 4.24078e-05, No Iterations 3
time step continuity errors : sum local = 2.62276e-08, global = 7.34785e-21, cumulative = -1.57011e-19
GAMG:  Solving for p_rgh, Initial residual = 0.00381604, Final residual = 0.000109476, No Iterations 3
GAMG:  Solving for p_rgh, Initial residual = 0.000110208, Final residual = 3.61264e-06, No Iterations 4
time step continuity errors : sum local = 2.23867e-09, global = 1.4265e-20, cumulative = -1.42746e-19
GAMG:  Solving for p_rgh, Initial residual = 0.000142403, Final residual = 5.03021e-06, No Iterations 2
GAMGPCG:  Solving for p_rgh, Initial residual = 5.09075e-06, Final residual = 9.56545e-07, No Iterations 1
time step continuity errors : sum local = 5.71645e-10, global = 4.9091e-22, cumulative = -1.42256e-19
ExecutionTime = 3.41 s  ClockTime = 10 s

Courant Number mean: 0.00737026 max: 0.0870185
Interface Courant Number mean: 0.000767224 max: 0.0869403
deltaT = 0.004662
Time = 0.17669

smoothSolver:  Solving for alpha.phase1, Initial residual = 0.000312606, Final residual = 5.77872e-11, No Iterations 2
Phase-1 volume fraction = 0.5  Min(alpha.phase1) = 1.25885e-308  Max(alpha.phase1) = 1
MULES: Correcting alpha.phase1
MULES: Correcting alpha.phase1
Phase-1 volume fraction = 0.5  Min(alpha.phase1) = -2.7874e-29  Max(alpha.phase1) = 1
smoothSolver:  Solving for Ux, Initial residual = 0.0173129, Final residual = 2.21523e-07, No Iterations 5
smoothSolver:  Solving for Uy, Initial residual = 0.0184249, Final residual = 3.39185e-07, No Iterations 5
GAMG:  Solving for p_rgh, Initial residual = 0.0483177, Final residual = 0.000921354, No Iterations 2
GAMG:  Solving for p_rgh, Initial residual = 0.00090833, Final residual = 4.16869e-05, No Iterations 3
time step continuity errors : sum local = 2.66352e-08, global = 3.31959e-21, cumulative = -1.38936e-19
GAMG:  Solving for p_rgh, Initial residual = 0.00394564, Final residual = 0.000112313, No Iterations 3
GAMG:  Solving for p_rgh, Initial residual = 0.000113099, Final residual = 3.70926e-06, No Iterations 4
time step continuity errors : sum local = 2.3716e-09, global = -9.84315e-21, cumulative = -1.48779e-19
GAMG:  Solving for p_rgh, Initial residual = 0.000153866, Final residual = 5.19891e-06, No Iterations 2
GAMGPCG:  Solving for p_rgh, Initial residual = 5.25942e-06, Final residual = 1.88618e-07, No Iterations 2
time step continuity errors : sum local = 1.20852e-10, global = 2.9144e-20, cumulative = -1.19635e-19
ExecutionTime = 3.51 s  ClockTime = 10 s

Courant Number mean: 0.00763979 max: 0.0895679
Interface Courant Number mean: 0.000793268 max: 0.0895679
deltaT = 0.004662
Time = 0.181352

smoothSolver:  Solving for alpha.phase1, Initial residual = 0.000322737, Final residual = 6.73844e-11, No Iterations 2
Phase-1 volume fraction = 0.5  Min(alpha.phase1) = 7.63492e-308  Max(alpha.phase1) = 1
MULES: Correcting alpha.phase1
MULES: Correcting alpha.phase1
Phase-1 volume fraction = 0.5  Min(alpha.phase1) = -4.98006e-29  Max(alpha.phase1) = 1
smoothSolver:  Solving for Ux, Initial residual = 0.0170953, Final residual = 2.21792e-07, No Iterations 5
smoothSolver:  Solving for Uy, Initial residual = 0.0182078, Final residual = 3.42469e-07, No Iterations 5
GAMG:  Solving for p_rgh, Initial residual = 0.0511401, Final residual = 0.000955547, No Iterations 2
GAMG:  Solving for p_rgh, Initial residual = 0.000942909, Final residual = 4.12432e-05, No Iterations 3
time step continuity errors : sum local = 2.71951e-08, global = -1.28701e-20, cumulative = -1.32505e-19
GAMG:  Solving for p_rgh, Initial residual = 0.00410116, Final residual = 0.000115455, No Iterations 3
GAMG:  Solving for p_rgh, Initial residual = 0.000116254, Final residual = 3.81465e-06, No Iterations 4
time step continuity errors : sum local = 2.51885e-09, global = -1.47352e-20, cumulative = -1.4724e-19
GAMG:  Solving for p_rgh, Initial residual = 0.000166967, Final residual = 5.44947e-06, No Iterations 2
GAMGPCG:  Solving for p_rgh, Initial residual = 5.5071e-06, Final residual = 1.57722e-07, No Iterations 2
time step continuity errors : sum local = 1.05891e-10, global = -1.48826e-20, cumulative = -1.62123e-19
ExecutionTime = 3.61 s  ClockTime = 10 s

Courant Number mean: 0.00791492 max: 0.0922008
Interface Courant Number mean: 0.000776104 max: 0.0922008
deltaT = 0.004662
Time = 0.186014

smoothSolver:  Solving for alpha.phase1, Initial residual = 0.000333044, Final residual = 7.83843e-11, No Iterations 2
Phase-1 volume fraction = 0.5  Min(alpha.phase1) = 4.64509e-307  Max(alpha.phase1) = 1
MULES: Correcting alpha.phase1
MULES: Correcting alpha.phase1
Phase-1 volume fraction = 0.5  Min(alpha.phase1) = -8.32023e-29  Max(alpha.phase1) = 1
smoothSolver:  Solving for Ux, Initial residual = 0.0169218, Final residual = 2.22343e-07, No Iterations 5
smoothSolver:  Solving for Uy, Initial residual = 0.0179817, Final residual = 3.46042e-07, No Iterations 5
GAMG:  Solving for p_rgh, Initial residual = 0.0569783, Final residual = 0.00108625, No Iterations 2
GAMG:  Solving for p_rgh, Initial residual = 0.00107393, Final residual = 3.73976e-05, No Iterations 3
time step continuity errors : sum local = 2.50247e-08, global = -8.23435e-21, cumulative = -1.70357e-19
GAMG:  Solving for p_rgh, Initial residual = 0.00443473, Final residual = 0.00011941, No Iterations 3
GAMG:  Solving for p_rgh, Initial residual = 0.000123989, Final residual = 5.20822e-06, No Iterations 4
time step continuity errors : sum local = 3.67011e-09, global = 1.08639e-20, cumulative = -1.59493e-19
GAMG:  Solving for p_rgh, Initial residual = 0.00018757, Final residual = 5.92401e-06, No Iterations 2
GAMGPCG:  Solving for p_rgh, Initial residual = 5.93597e-06, Final residual = 1.49669e-07, No Iterations 2
time step continuity errors : sum local = 9.94361e-11, global = 2.40898e-20, cumulative = -1.35404e-19
ExecutionTime = 3.69 s  ClockTime = 10 s

Courant Number mean: 0.00819535 max: 0.0948747
Interface Courant Number mean: 0.000717269 max: 0.0878292
deltaT = 0.004662
Time = 0.190676

smoothSolver:  Solving for alpha.phase1, Initial residual = 0.00034381, Final residual = 9.08957e-11, No Iterations 2
Phase-1 volume fraction = 0.5  Min(alpha.phase1) = 2.79404e-306  Max(alpha.phase1) = 1
MULES: Correcting alpha.phase1
MULES: Correcting alpha.phase1
Phase-1 volume fraction = 0.5  Min(alpha.phase1) = -1.25086e-28  Max(alpha.phase1) = 1
smoothSolver:  Solving for Ux, Initial residual = 0.0167302, Final residual = 2.23773e-07, No Iterations 5
smoothSolver:  Solving for Uy, Initial residual = 0.0177844, Final residual = 3.53759e-07, No Iterations 5
GAMG:  Solving for p_rgh, Initial residual = 0.0647773, Final residual = 0.00132532, No Iterations 2
GAMG:  Solving for p_rgh, Initial residual = 0.00131069, Final residual = 3.96971e-05, No Iterations 3
time step continuity errors : sum local = 2.78925e-08, global = 2.1396e-20, cumulative = -1.14008e-19
GAMG:  Solving for p_rgh, Initial residual = 0.00487293, Final residual = 0.000129744, No Iterations 3
GAMG:  Solving for p_rgh, Initial residual = 0.000130863, Final residual = 5.64608e-06, No Iterations 4
time step continuity errors : sum local = 4.07748e-09, global = 3.56406e-21, cumulative = -1.10444e-19
GAMG:  Solving for p_rgh, Initial residual = 0.000218783, Final residual = 6.75613e-06, No Iterations 2
GAMGPCG:  Solving for p_rgh, Initial residual = 6.89914e-06, Final residual = 1.95251e-07, No Iterations 2
time step continuity errors : sum local = 1.33388e-10, global = 1.64089e-21, cumulative = -1.08803e-19
ExecutionTime = 3.79 s  ClockTime = 10 s

Courant Number mean: 0.00848121 max: 0.0975053
Interface Courant Number mean: 0.000751048 max: 0.0908487
deltaT = 0.004662
Time = 0.195338

smoothSolver:  Solving for alpha.phase1, Initial residual = 0.000355457, Final residual = 1.048e-10, No Iterations 2
Phase-1 volume fraction = 0.5  Min(alpha.phase1) = 1.6427e-305  Max(alpha.phase1) = 1
MULES: Correcting alpha.phase1
MULES: Correcting alpha.phase1
Phase-1 volume fraction = 0.5  Min(alpha.phase1) = -1.60499e-28  Max(alpha.phase1) = 1
smoothSolver:  Solving for Ux, Initial residual = 0.0164671, Final residual = 2.25398e-07, No Iterations 5
smoothSolver:  Solving for Uy, Initial residual = 0.0175949, Final residual = 3.59093e-07, No Iterations 5
GAMG:  Solving for p_rgh, Initial residual = 0.0643698, Final residual = 0.00134874, No Iterations 2
GAMG:  Solving for p_rgh, Initial residual = 0.00133493, Final residual = 4.54403e-05, No Iterations 3
time step continuity errors : sum local = 3.16331e-08, global = 2.37746e-21, cumulative = -1.06425e-19
GAMG:  Solving for p_rgh, Initial residual = 0.00495355, Final residual = 0.000132718, No Iterations 3
GAMG:  Solving for p_rgh, Initial residual = 0.000133671, Final residual = 4.38338e-06, No Iterations 4
time step continuity errors : sum local = 3.0863e-09, global = -2.56542e-21, cumulative = -1.08991e-19
GAMG:  Solving for p_rgh, Initial residual = 0.000231508, Final residual = 6.5419e-06, No Iterations 2
GAMGPCG:  Solving for p_rgh, Initial residual = 6.57149e-06, Final residual = 1.23292e-07, No Iterations 2
time step continuity errors : sum local = 8.73368e-11, global = 3.50719e-21, cumulative = -1.05483e-19
ExecutionTime = 3.87 s  ClockTime = 10 s

Courant Number mean: 0.00877383 max: 0.100049
Interface Courant Number mean: 0.000848784 max: 0.0939076
deltaT = 0.004662
Time = 0.2

smoothSolver:  Solving for alpha.phase1, Initial residual = 0.000367407, Final residual = 1.20576e-10, No Iterations 2
Phase-1 volume fraction = 0.5  Min(alpha.phase1) = 9.3681e-305  Max(alpha.phase1) = 1
MULES: Correcting alpha.phase1
MULES: Correcting alpha.phase1
Phase-1 volume fraction = 0.5  Min(alpha.phase1) = -3.19198e-28  Max(alpha.phase1) = 1
smoothSolver:  Solving for Ux, Initial residual = 0.0163084, Final residual = 2.27964e-07, No Iterations 5
smoothSolver:  Solving for Uy, Initial residual = 0.0174455, Final residual = 3.64925e-07, No Iterations 5
GAMG:  Solving for p_rgh, Initial residual = 0.0625269, Final residual = 0.00142982, No Iterations 2
GAMG:  Solving for p_rgh, Initial residual = 0.00141045, Final residual = 4.96609e-05, No Iterations 3
time step continuity errors : sum local = 3.51715e-08, global = 1.19006e-20, cumulative = -9.35829e-20
GAMG:  Solving for p_rgh, Initial residual = 0.00502101, Final residual = 0.000134316, No Iterations 3
GAMG:  Solving for p_rgh, Initial residual = 0.000135279, Final residual = 4.44519e-06, No Iterations 4
time step continuity errors : sum local = 3.18625e-09, global = 2.29651e-20, cumulative = -7.06178e-20
GAMG:  Solving for p_rgh, Initial residual = 0.000238111, Final residual = 6.4635e-06, No Iterations 2
GAMGPCG:  Solving for p_rgh, Initial residual = 6.49446e-06, Final residual = 1.82664e-07, No Iterations 2
time step continuity errors : sum local = 1.29106e-10, global = -1.11972e-20, cumulative = -8.18149e-20
ExecutionTime = 4.03 s  ClockTime = 10 s

Courant Number mean: 0.00907429 max: 0.102531
Interface Courant Number mean: 0.00094833 max: 0.0970085
deltaT = 0.00454545
Time = 0.204545

smoothSolver:  Solving for alpha.phase1, Initial residual = 0.000370276, Final residual = 1.22512e-10, No Iterations 2
Phase-1 volume fraction = 0.5  Min(alpha.phase1) = 4.78272e-304  Max(alpha.phase1) = 1
MULES: Correcting alpha.phase1
MULES: Correcting alpha.phase1
Phase-1 volume fraction = 0.5  Min(alpha.phase1) = -4.03053e-28  Max(alpha.phase1) = 1
smoothSolver:  Solving for Ux, Initial residual = 0.0157582, Final residual = 2.02163e-07, No Iterations 5
smoothSolver:  Solving for Uy, Initial residual = 0.0168673, Final residual = 3.24371e-07, No Iterations 5
GAMG:  Solving for p_rgh, Initial residual = 0.0597008, Final residual = 0.00145578, No Iterations 2
GAMG:  Solving for p_rgh, Initial residual = 0.00141931, Final residual = 5.44031e-05, No Iterations 3
time step continuity errors : sum local = 3.85904e-08, global = -1.21651e-20, cumulative = -9.398e-20
GAMG:  Solving for p_rgh, Initial residual = 0.00473798, Final residual = 0.000124543, No Iterations 3
GAMG:  Solving for p_rgh, Initial residual = 0.000125445, Final residual = 4.1631e-06, No Iterations 4
time step continuity errors : sum local = 2.97979e-09, global = -6.64297e-21, cumulative = -1.00623e-19
GAMG:  Solving for p_rgh, Initial residual = 0.000223689, Final residual = 5.90085e-06, No Iterations 2
GAMGPCG:  Solving for p_rgh, Initial residual = 5.9531e-06, Final residual = 9.55423e-07, No Iterations 1
time step continuity errors : sum local = 6.64541e-10, global = 8.44134e-21, cumulative = -9.21817e-20
ExecutionTime = 4.12 s  ClockTime = 11 s

Courant Number mean: 0.00913993 max: 0.102304
Interface Courant Number mean: 0.000953768 max: 0.0975715
deltaT = 0.00413223
Time = 0.208678

smoothSolver:  Solving for alpha.phase1, Initial residual = 0.000348147, Final residual = 8.82847e-11, No Iterations 2
Phase-1 volume fraction = 0.5  Min(alpha.phase1) = 1.8606e-303  Max(alpha.phase1) = 1
MULES: Correcting alpha.phase1
MULES: Correcting alpha.phase1
Phase-1 volume fraction = 0.5  Min(alpha.phase1) = -6.24041e-28  Max(alpha.phase1) = 1
smoothSolver:  Solving for Ux, Initial residual = 0.014191, Final residual = 9.04528e-07, No Iterations 4
smoothSolver:  Solving for Uy, Initial residual = 0.0152213, Final residual = 1.98637e-07, No Iterations 5
GAMG:  Solving for p_rgh, Initial residual = 0.0522583, Final residual = 0.00136069, No Iterations 2
GAMG:  Solving for p_rgh, Initial residual = 0.00133268, Final residual = 5.53273e-05, No Iterations 3
time step continuity errors : sum local = 3.4482e-08, global = -2.55934e-20, cumulative = -1.17775e-19
GAMG:  Solving for p_rgh, Initial residual = 0.00397607, Final residual = 0.000100886, No Iterations 3
GAMG:  Solving for p_rgh, Initial residual = 0.000101544, Final residual = 3.42112e-06, No Iterations 4
time step continuity errors : sum local = 2.14222e-09, global = 4.69633e-21, cumulative = -1.13079e-19
GAMG:  Solving for p_rgh, Initial residual = 0.000176299, Final residual = 4.59511e-06, No Iterations 2
GAMGPCG:  Solving for p_rgh, Initial residual = 4.6511e-06, Final residual = 8.50668e-07, No Iterations 1
time step continuity errors : sum local = 5.11084e-10, global = 3.63081e-21, cumulative = -1.09448e-19
ExecutionTime = 4.19 s  ClockTime = 11 s

Courant Number mean: 0.00855569 max: 0.0949109
Interface Courant Number mean: 0.000890357 max: 0.0911958
deltaT = 0.00413223
Time = 0.21281

smoothSolver:  Solving for alpha.phase1, Initial residual = 0.000359284, Final residual = 9.93056e-11, No Iterations 2
Phase-1 volume fraction = 0.5  Min(alpha.phase1) = 7.6853e-303  Max(alpha.phase1) = 1
MULES: Correcting alpha.phase1
MULES: Correcting alpha.phase1
Phase-1 volume fraction = 0.5  Min(alpha.phase1) = -1.19094e-29  Max(alpha.phase1) = 1
smoothSolver:  Solving for Ux, Initial residual = 0.0140879, Final residual = 9.11572e-07, No Iterations 4
smoothSolver:  Solving for Uy, Initial residual = 0.0151314, Final residual = 2.01453e-07, No Iterations 5
GAMG:  Solving for p_rgh, Initial residual = 0.0504448, Final residual = 0.00144169, No Iterations 2
GAMG:  Solving for p_rgh, Initial residual = 0.00141224, Final residual = 5.91768e-05, No Iterations 3
time step continuity errors : sum local = 3.77734e-08, global = -1.66832e-20, cumulative = -1.26131e-19
GAMG:  Solving for p_rgh, Initial residual = 0.00394473, Final residual = 9.96419e-05, No Iterations 3
GAMG:  Solving for p_rgh, Initial residual = 0.000100212, Final residual = 3.39889e-06, No Iterations 4
time step continuity errors : sum local = 2.20266e-09, global = -2.22769e-20, cumulative = -1.48408e-19
GAMG:  Solving for p_rgh, Initial residual = 0.000174416, Final residual = 4.64777e-06, No Iterations 2
GAMGPCG:  Solving for p_rgh, Initial residual = 4.67955e-06, Final residual = 8.2711e-07, No Iterations 1
time step continuity errors : sum local = 5.26512e-10, global = -6.00303e-21, cumulative = -1.54411e-19
ExecutionTime = 4.25 s  ClockTime = 11 s

Courant Number mean: 0.00880761 max: 0.0967881
Interface Courant Number mean: 0.00087564 max: 0.0937067
deltaT = 0.00413223
Time = 0.216942

smoothSolver:  Solving for alpha.phase1, Initial residual = 0.000370133, Final residual = 1.11392e-10, No Iterations 2
Phase-1 volume fraction = 0.5  Min(alpha.phase1) = 3.53611e-302  Max(alpha.phase1) = 1
MULES: Correcting alpha.phase1
MULES: Correcting alpha.phase1
Phase-1 volume fraction = 0.5  Min(alpha.phase1) = -3.20048e-29  Max(alpha.phase1) = 1
smoothSolver:  Solving for Ux, Initial residual = 0.0139963, Final residual = 9.23694e-07, No Iterations 4
smoothSolver:  Solving for Uy, Initial residual = 0.0150393, Final residual = 2.0519e-07, No Iterations 5
GAMG:  Solving for p_rgh, Initial residual = 0.0496402, Final residual = 0.00153652, No Iterations 2
GAMG:  Solving for p_rgh, Initial residual = 0.00150821, Final residual = 6.61143e-05, No Iterations 3
time step continuity errors : sum local = 4.35109e-08, global = 1.91594e-20, cumulative = -1.35252e-19
GAMG:  Solving for p_rgh, Initial residual = 0.00405102, Final residual = 0.000100102, No Iterations 3
GAMG:  Solving for p_rgh, Initial residual = 0.000100608, Final residual = 3.43786e-06, No Iterations 4
time step continuity errors : sum local = 2.3007e-09, global = 2.66754e-20, cumulative = -1.08576e-19
GAMG:  Solving for p_rgh, Initial residual = 0.000174789, Final residual = 4.79513e-06, No Iterations 2
GAMGPCG:  Solving for p_rgh, Initial residual = 4.82387e-06, Final residual = 8.75364e-07, No Iterations 1
time step continuity errors : sum local = 5.74649e-10, global = -2.31522e-21, cumulative = -1.10891e-19
ExecutionTime = 4.3 s  ClockTime = 11 s

Courant Number mean: 0.00906538 max: 0.098627
Interface Courant Number mean: 0.000900525 max: 0.0962242
deltaT = 0.00413223
Time = 0.221074

smoothSolver:  Solving for alpha.phase1, Initial residual = 0.000380076, Final residual = 1.2437e-10, No Iterations 2
Phase-1 volume fraction = 0.5  Min(alpha.phase1) = 1.86579e-301  Max(alpha.phase1) = 1
MULES: Correcting alpha.phase1
MULES: Correcting alpha.phase1
[...]
Phase-1 volume fraction = 0.5  Min(alpha.phase1) = 2.31688e-74  Max(alpha.phase1) = 1
MULES: Correcting alpha.phase1
MULES: Correcting alpha.phase1
Phase-1 volume fraction = 0.5  Min(alpha.phase1) = 2.31688e-74  Max(alpha.phase1) = 1
smoothSolver:  Solving for Ux, Initial residual = 0.00187618, Final residual = 9.51002e-07, No Iterations 2
smoothSolver:  Solving for Uy, Initial residual = 0.000601031, Final residual = 3.85226e-07, No Iterations 2
GAMG:  Solving for p_rgh, Initial residual = 0.0121142, Final residual = 0.000163948, No Iterations 2
GAMG:  Solving for p_rgh, Initial residual = 0.000164689, Final residual = 4.87052e-06, No Iterations 3
time step continuity errors : sum local = 2.05021e-09, global = 6.11764e-21, cumulative = -1.00796e-18
GAMG:  Solving for p_rgh, Initial residual = 0.000211077, Final residual = 6.17873e-06, No Iterations 2
GAMG:  Solving for p_rgh, Initial residual = 6.39306e-06, Final residual = 4.91521e-07, No Iterations 3
time step continuity errors : sum local = 2.15272e-10, global = -1.28933e-20, cumulative = -1.02085e-18
GAMG:  Solving for p_rgh, Initial residual = 3.79856e-06, Final residual = 3.60827e-07, No Iterations 1
GAMGPCG:  Solving for p_rgh, Initial residual = 4.16003e-07, Final residual = 4.16003e-07, No Iterations 0
time step continuity errors : sum local = 1.60815e-10, global = -8.41952e-21, cumulative = -1.02927e-18
ExecutionTime = 48.34 s  ClockTime = 55 s

Courant Number mean: 0.0168224 max: 0.0984564
Interface Courant Number mean: 0.00309508 max: 0.087168
deltaT = 0.000336043
Time = 0.99664

smoothSolver:  Solving for alpha.phase1, Initial residual = 0.000474178, Final residual = 2.69884e-11, No Iterations 2
Phase-1 volume fraction = 0.5  Min(alpha.phase1) = 2.92151e-74  Max(alpha.phase1) = 1
MULES: Correcting alpha.phase1
MULES: Correcting alpha.phase1
Phase-1 volume fraction = 0.5  Min(alpha.phase1) = 2.92151e-74  Max(alpha.phase1) = 1
smoothSolver:  Solving for Ux, Initial residual = 0.00187274, Final residual = 9.50768e-07, No Iterations 2
smoothSolver:  Solving for Uy, Initial residual = 0.000600192, Final residual = 3.84323e-07, No Iterations 2
GAMG:  Solving for p_rgh, Initial residual = 0.0124045, Final residual = 0.000167918, No Iterations 2
GAMG:  Solving for p_rgh, Initial residual = 0.000170491, Final residual = 6.00753e-06, No Iterations 3
time step continuity errors : sum local = 2.34136e-09, global = 4.93388e-21, cumulative = -1.02434e-18
GAMG:  Solving for p_rgh, Initial residual = 0.000212328, Final residual = 6.45383e-06, No Iterations 2
GAMG:  Solving for p_rgh, Initial residual = 6.6743e-06, Final residual = 5.29376e-07, No Iterations 3
time step continuity errors : sum local = 2.31304e-10, global = 2.04138e-20, cumulative = -1.00392e-18
GAMG:  Solving for p_rgh, Initial residual = 3.85867e-06, Final residual = 3.88796e-07, No Iterations 1
GAMGPCG:  Solving for p_rgh, Initial residual = 4.5253e-07, Final residual = 4.5253e-07, No Iterations 0
time step continuity errors : sum local = 1.74452e-10, global = 4.35508e-21, cumulative = -9.99569e-19
ExecutionTime = 48.39 s  ClockTime = 55 s

Courant Number mean: 0.0168328 max: 0.0984151
Interface Courant Number mean: 0.00308089 max: 0.0869607
deltaT = 0.000336043
Time = 0.996976

smoothSolver:  Solving for alpha.phase1, Initial residual = 0.000474299, Final residual = 2.70549e-11, No Iterations 2
Phase-1 volume fraction = 0.5  Min(alpha.phase1) = 3.68464e-74  Max(alpha.phase1) = 1
MULES: Correcting alpha.phase1
MULES: Correcting alpha.phase1
Phase-1 volume fraction = 0.5  Min(alpha.phase1) = 3.68464e-74  Max(alpha.phase1) = 1
smoothSolver:  Solving for Ux, Initial residual = 0.00186938, Final residual = 9.48059e-07, No Iterations 2
smoothSolver:  Solving for Uy, Initial residual = 0.000598814, Final residual = 3.83066e-07, No Iterations 2
GAMG:  Solving for p_rgh, Initial residual = 0.0120411, Final residual = 0.000168394, No Iterations 2
GAMG:  Solving for p_rgh, Initial residual = 0.000170945, Final residual = 6.12043e-06, No Iterations 3
time step continuity errors : sum local = 2.35927e-09, global = 2.27224e-20, cumulative = -9.76847e-19
GAMG:  Solving for p_rgh, Initial residual = 0.000208383, Final residual = 6.38919e-06, No Iterations 2
GAMG:  Solving for p_rgh, Initial residual = 6.60905e-06, Final residual = 5.29016e-07, No Iterations 3
time step continuity errors : sum local = 2.30775e-10, global = -4.27162e-21, cumulative = -9.81118e-19
GAMG:  Solving for p_rgh, Initial residual = 3.803e-06, Final residual = 3.81148e-07, No Iterations 1
GAMGPCG:  Solving for p_rgh, Initial residual = 4.4557e-07, Final residual = 4.4557e-07, No Iterations 0
time step continuity errors : sum local = 1.71449e-10, global = -7.52377e-21, cumulative = -9.88642e-19
ExecutionTime = 48.43 s  ClockTime = 55 s

Courant Number mean: 0.0168432 max: 0.0983643
Interface Courant Number mean: 0.00310601 max: 0.0867474
deltaT = 0.000336043
Time = 0.997312

smoothSolver:  Solving for alpha.phase1, Initial residual = 0.000474382, Final residual = 2.71291e-11, No Iterations 2
Phase-1 volume fraction = 0.5  Min(alpha.phase1) = 4.6461e-74  Max(alpha.phase1) = 1
MULES: Correcting alpha.phase1
MULES: Correcting alpha.phase1
Phase-1 volume fraction = 0.5  Min(alpha.phase1) = 4.6461e-74  Max(alpha.phase1) = 1
smoothSolver:  Solving for Ux, Initial residual = 0.00186718, Final residual = 9.46169e-07, No Iterations 2
smoothSolver:  Solving for Uy, Initial residual = 0.000598067, Final residual = 3.82518e-07, No Iterations 2
GAMG:  Solving for p_rgh, Initial residual = 0.0120185, Final residual = 0.000171767, No Iterations 2
GAMG:  Solving for p_rgh, Initial residual = 0.000174226, Final residual = 6.04231e-06, No Iterations 3
time step continuity errors : sum local = 2.36267e-09, global = 1.31034e-20, cumulative = -9.75539e-19
GAMG:  Solving for p_rgh, Initial residual = 0.000210391, Final residual = 6.46639e-06, No Iterations 2
GAMG:  Solving for p_rgh, Initial residual = 6.68829e-06, Final residual = 5.30928e-07, No Iterations 3
time step continuity errors : sum local = 2.31665e-10, global = -4.39287e-21, cumulative = -9.79932e-19
GAMG:  Solving for p_rgh, Initial residual = 3.84251e-06, Final residual = 3.87805e-07, No Iterations 1
GAMGPCG:  Solving for p_rgh, Initial residual = 4.51724e-07, Final residual = 4.51724e-07, No Iterations 0
time step continuity errors : sum local = 1.73954e-10, global = -1.5112e-21, cumulative = -9.81443e-19
ExecutionTime = 48.47 s  ClockTime = 55 s

Courant Number mean: 0.0168537 max: 0.0983038
Interface Courant Number mean: 0.00310545 max: 0.0865283
deltaT = 0.000336043
Time = 0.997648

smoothSolver:  Solving for alpha.phase1, Initial residual = 0.000474443, Final residual = 2.72083e-11, No Iterations 2
Phase-1 volume fraction = 0.5  Min(alpha.phase1) = 5.85565e-74  Max(alpha.phase1) = 1
MULES: Correcting alpha.phase1
MULES: Correcting alpha.phase1
Phase-1 volume fraction = 0.5  Min(alpha.phase1) = 5.85565e-74  Max(alpha.phase1) = 1
smoothSolver:  Solving for Ux, Initial residual = 0.00186475, Final residual = 9.44474e-07, No Iterations 2
smoothSolver:  Solving for Uy, Initial residual = 0.000597844, Final residual = 3.82904e-07, No Iterations 2
GAMG:  Solving for p_rgh, Initial residual = 0.0121327, Final residual = 0.000177491, No Iterations 2
GAMG:  Solving for p_rgh, Initial residual = 0.000180142, Final residual = 6.5944e-06, No Iterations 3
time step continuity errors : sum local = 2.54189e-09, global = 1.43314e-20, cumulative = -9.67112e-19
GAMG:  Solving for p_rgh, Initial residual = 0.000211574, Final residual = 6.65893e-06, No Iterations 2
GAMG:  Solving for p_rgh, Initial residual = 6.89214e-06, Final residual = 5.50803e-07, No Iterations 3
time step continuity errors : sum local = 2.40457e-10, global = 1.10499e-20, cumulative = -9.56062e-19
GAMG:  Solving for p_rgh, Initial residual = 3.88781e-06, Final residual = 3.88614e-07, No Iterations 1
GAMGPCG:  Solving for p_rgh, Initial residual = 4.55657e-07, Final residual = 4.55657e-07, No Iterations 0
time step continuity errors : sum local = 1.75576e-10, global = 3.1551e-20, cumulative = -9.24511e-19
ExecutionTime = 48.51 s  ClockTime = 56 s

Courant Number mean: 0.0168641 max: 0.0982329
Interface Courant Number mean: 0.00310345 max: 0.0863031
deltaT = 0.000336043
Time = 0.997984

smoothSolver:  Solving for alpha.phase1, Initial residual = 0.000474778, Final residual = 2.72944e-11, No Iterations 2
Phase-1 volume fraction = 0.5  Min(alpha.phase1) = 7.37669e-74  Max(alpha.phase1) = 1
MULES: Correcting alpha.phase1
MULES: Correcting alpha.phase1
Phase-1 volume fraction = 0.5  Min(alpha.phase1) = 7.37669e-74  Max(alpha.phase1) = 1
smoothSolver:  Solving for Ux, Initial residual = 0.00186302, Final residual = 9.42648e-07, No Iterations 2
smoothSolver:  Solving for Uy, Initial residual = 0.000597662, Final residual = 3.82871e-07, No Iterations 2
GAMG:  Solving for p_rgh, Initial residual = 0.0122809, Final residual = 0.0001803, No Iterations 2
GAMG:  Solving for p_rgh, Initial residual = 0.000183048, Final residual = 6.01071e-06, No Iterations 3
time step continuity errors : sum local = 2.3934e-09, global = -1.2362e-20, cumulative = -9.36873e-19
GAMG:  Solving for p_rgh, Initial residual = 0.000212955, Final residual = 6.59886e-06, No Iterations 2
GAMG:  Solving for p_rgh, Initial residual = 6.82355e-06, Final residual = 5.37709e-07, No Iterations 3
time step continuity errors : sum local = 2.34681e-10, global = 6.89291e-21, cumulative = -9.2998e-19
GAMG:  Solving for p_rgh, Initial residual = 3.91804e-06, Final residual = 3.94563e-07, No Iterations 1
GAMGPCG:  Solving for p_rgh, Initial residual = 4.58289e-07, Final residual = 4.58289e-07, No Iterations 0
time step continuity errors : sum local = 1.767e-10, global = -1.66523e-20, cumulative = -9.46632e-19
ExecutionTime = 48.57 s  ClockTime = 56 s

Courant Number mean: 0.0168745 max: 0.0981512
Interface Courant Number mean: 0.00313962 max: 0.0860717
deltaT = 0.000336043
Time = 0.99832

smoothSolver:  Solving for alpha.phase1, Initial residual = 0.000475025, Final residual = 2.73767e-11, No Iterations 2
Phase-1 volume fraction = 0.5  Min(alpha.phase1) = 9.29057e-74  Max(alpha.phase1) = 1
MULES: Correcting alpha.phase1
MULES: Correcting alpha.phase1
Phase-1 volume fraction = 0.5  Min(alpha.phase1) = 9.29057e-74  Max(alpha.phase1) = 1
smoothSolver:  Solving for Ux, Initial residual = 0.00186877, Final residual = 9.42197e-07, No Iterations 2
smoothSolver:  Solving for Uy, Initial residual = 0.000598481, Final residual = 3.83191e-07, No Iterations 2
GAMG:  Solving for p_rgh, Initial residual = 0.0124698, Final residual = 0.000185411, No Iterations 2
GAMG:  Solving for p_rgh, Initial residual = 0.000188432, Final residual = 6.09156e-06, No Iterations 3
time step continuity errors : sum local = 2.4969e-09, global = 2.7446e-20, cumulative = -9.19186e-19
GAMG:  Solving for p_rgh, Initial residual = 0.000219565, Final residual = 6.96992e-06, No Iterations 2
GAMG:  Solving for p_rgh, Initial residual = 7.20654e-06, Final residual = 5.53468e-07, No Iterations 3
time step continuity errors : sum local = 2.41386e-10, global = 2.67887e-21, cumulative = -9.16507e-19
GAMG:  Solving for p_rgh, Initial residual = 4.08598e-06, Final residual = 4.17302e-07, No Iterations 1
GAMGPCG:  Solving for p_rgh, Initial residual = 4.80705e-07, Final residual = 4.80705e-07, No Iterations 0
time step continuity errors : sum local = 1.8547e-10, global = -3.19531e-21, cumulative = -9.19702e-19
ExecutionTime = 48.62 s  ClockTime = 56 s

Courant Number mean: 0.0168849 max: 0.0980571
Interface Courant Number mean: 0.00313738 max: 0.0858304
deltaT = 0.000336043
Time = 0.998656

smoothSolver:  Solving for alpha.phase1, Initial residual = 0.000475474, Final residual = 2.74615e-11, No Iterations 2
Phase-1 volume fraction = 0.5  Min(alpha.phase1) = 1.1699e-73  Max(alpha.phase1) = 1
MULES: Correcting alpha.phase1
MULES: Correcting alpha.phase1
Phase-1 volume fraction = 0.5  Min(alpha.phase1) = 1.1699e-73  Max(alpha.phase1) = 1
smoothSolver:  Solving for Ux, Initial residual = 0.0018697, Final residual = 9.41666e-07, No Iterations 2
smoothSolver:  Solving for Uy, Initial residual = 0.000598468, Final residual = 3.83124e-07, No Iterations 2
GAMG:  Solving for p_rgh, Initial residual = 0.0124489, Final residual = 0.000179101, No Iterations 2
GAMG:  Solving for p_rgh, Initial residual = 0.000181805, Final residual = 6.02904e-06, No Iterations 3
time step continuity errors : sum local = 2.42361e-09, global = 5.02684e-21, cumulative = -9.14676e-19
GAMG:  Solving for p_rgh, Initial residual = 0.000218518, Final residual = 6.7075e-06, No Iterations 2
GAMG:  Solving for p_rgh, Initial residual = 6.93792e-06, Final residual = 5.42125e-07, No Iterations 3
time step continuity errors : sum local = 2.37377e-10, global = -1.32032e-20, cumulative = -9.27879e-19
GAMG:  Solving for p_rgh, Initial residual = 4.13824e-06, Final residual = 4.10108e-07, No Iterations 1
GAMGPCG:  Solving for p_rgh, Initial residual = 4.72992e-07, Final residual = 4.72992e-07, No Iterations 0
time step continuity errors : sum local = 1.83119e-10, global = 6.04509e-21, cumulative = -9.21834e-19
ExecutionTime = 48.66 s  ClockTime = 56 s

Courant Number mean: 0.0168956 max: 0.0979476
Interface Courant Number mean: 0.00311347 max: 0.0856127
deltaT = 0.000336043
Time = 0.998992

smoothSolver:  Solving for alpha.phase1, Initial residual = 0.000475883, Final residual = 2.75531e-11, No Iterations 2
Phase-1 volume fraction = 0.5  Min(alpha.phase1) = 1.47264e-73  Max(alpha.phase1) = 1
MULES: Correcting alpha.phase1
MULES: Correcting alpha.phase1
Phase-1 volume fraction = 0.5  Min(alpha.phase1) = 1.47264e-73  Max(alpha.phase1) = 1
smoothSolver:  Solving for Ux, Initial residual = 0.00186802, Final residual = 9.4073e-07, No Iterations 2
smoothSolver:  Solving for Uy, Initial residual = 0.000598111, Final residual = 3.82753e-07, No Iterations 2
GAMG:  Solving for p_rgh, Initial residual = 0.0126739, Final residual = 0.000184686, No Iterations 2
GAMG:  Solving for p_rgh, Initial residual = 0.00018746, Final residual = 6.19856e-06, No Iterations 3
time step continuity errors : sum local = 2.48809e-09, global = -2.30135e-20, cumulative = -9.44847e-19
GAMG:  Solving for p_rgh, Initial residual = 0.000225323, Final residual = 6.7664e-06, No Iterations 2
GAMG:  Solving for p_rgh, Initial residual = 6.99686e-06, Final residual = 5.49957e-07, No Iterations 3
time step continuity errors : sum local = 2.41508e-10, global = -1.00359e-20, cumulative = -9.54883e-19
GAMG:  Solving for p_rgh, Initial residual = 4.53529e-06, Final residual = 4.42393e-07, No Iterations 1
GAMGPCG:  Solving for p_rgh, Initial residual = 5.05434e-07, Final residual = 5.05434e-07, No Iterations 0
time step continuity errors : sum local = 1.96146e-10, global = 1.32166e-20, cumulative = -9.41666e-19
ExecutionTime = 48.71 s  ClockTime = 56 s

Courant Number mean: 0.0169061 max: 0.0978375
Interface Courant Number mean: 0.00312695 max: 0.0855173
deltaT = 0.000336043
Time = 0.999328

smoothSolver:  Solving for alpha.phase1, Initial residual = 0.000476301, Final residual = 2.76672e-11, No Iterations 2
Phase-1 volume fraction = 0.5  Min(alpha.phase1) = 1.85258e-73  Max(alpha.phase1) = 1
MULES: Correcting alpha.phase1
MULES: Correcting alpha.phase1
Phase-1 volume fraction = 0.5  Min(alpha.phase1) = 1.85258e-73  Max(alpha.phase1) = 1
smoothSolver:  Solving for Ux, Initial residual = 0.00186779, Final residual = 9.39052e-07, No Iterations 2
smoothSolver:  Solving for Uy, Initial residual = 0.000596878, Final residual = 3.81866e-07, No Iterations 2
GAMG:  Solving for p_rgh, Initial residual = 0.0124787, Final residual = 0.000182634, No Iterations 2
GAMG:  Solving for p_rgh, Initial residual = 0.000185398, Final residual = 5.94346e-06, No Iterations 3
time step continuity errors : sum local = 2.43847e-09, global = -1.07285e-20, cumulative = -9.52395e-19
GAMG:  Solving for p_rgh, Initial residual = 0.000214832, Final residual = 6.75435e-06, No Iterations 2
GAMG:  Solving for p_rgh, Initial residual = 6.98142e-06, Final residual = 5.4076e-07, No Iterations 3
time step continuity errors : sum local = 2.37835e-10, global = -1.31312e-20, cumulative = -9.65526e-19
GAMG:  Solving for p_rgh, Initial residual = 4.10461e-06, Final residual = 4.13619e-07, No Iterations 1
GAMGPCG:  Solving for p_rgh, Initial residual = 4.76057e-07, Final residual = 4.76057e-07, No Iterations 0
time step continuity errors : sum local = 1.85227e-10, global = -1.09565e-20, cumulative = -9.76483e-19
ExecutionTime = 48.75 s  ClockTime = 56 s

Courant Number mean: 0.0169166 max: 0.0977179
Interface Courant Number mean: 0.0031015 max: 0.0854175
deltaT = 0.000336043
Time = 0.999664

smoothSolver:  Solving for alpha.phase1, Initial residual = 0.000476877, Final residual = 2.77794e-11, No Iterations 2
Phase-1 volume fraction = 0.5  Min(alpha.phase1) = 2.32853e-73  Max(alpha.phase1) = 1
MULES: Correcting alpha.phase1
MULES: Correcting alpha.phase1
Phase-1 volume fraction = 0.5  Min(alpha.phase1) = 2.32853e-73  Max(alpha.phase1) = 1
smoothSolver:  Solving for Ux, Initial residual = 0.00186692, Final residual = 9.35574e-07, No Iterations 2
smoothSolver:  Solving for Uy, Initial residual = 0.000596379, Final residual = 3.80986e-07, No Iterations 2
GAMG:  Solving for p_rgh, Initial residual = 0.0123014, Final residual = 0.000182957, No Iterations 2
GAMG:  Solving for p_rgh, Initial residual = 0.000185691, Final residual = 5.96617e-06, No Iterations 3
time step continuity errors : sum local = 2.42862e-09, global = -6.3451e-21, cumulative = -9.82828e-19
GAMG:  Solving for p_rgh, Initial residual = 0.000213302, Final residual = 6.71563e-06, No Iterations 2
GAMG:  Solving for p_rgh, Initial residual = 6.94097e-06, Final residual = 5.42279e-07, No Iterations 3
time step continuity errors : sum local = 2.39065e-10, global = 1.57819e-20, cumulative = -9.67046e-19
GAMG:  Solving for p_rgh, Initial residual = 3.95317e-06, Final residual = 3.97974e-07, No Iterations 1
GAMGPCG:  Solving for p_rgh, Initial residual = 4.61703e-07, Final residual = 4.61703e-07, No Iterations 0
time step continuity errors : sum local = 1.80012e-10, global = 1.29243e-20, cumulative = -9.54121e-19
ExecutionTime = 48.79 s  ClockTime = 56 s

Courant Number mean: 0.016927 max: 0.0975859
Interface Courant Number mean: 0.00309453 max: 0.0853108
deltaT = 0.000336043
Time = 1

smoothSolver:  Solving for alpha.phase1, Initial residual = 0.000477584, Final residual = 2.78841e-11, No Iterations 2
Phase-1 volume fraction = 0.5  Min(alpha.phase1) = 2.92354e-73  Max(alpha.phase1) = 1
MULES: Correcting alpha.phase1
MULES: Correcting alpha.phase1
Phase-1 volume fraction = 0.5  Min(alpha.phase1) = 2.92354e-73  Max(alpha.phase1) = 1
smoothSolver:  Solving for Ux, Initial residual = 0.00186369, Final residual = 9.33864e-07, No Iterations 2
smoothSolver:  Solving for Uy, Initial residual = 0.00059655, Final residual = 3.80724e-07, No Iterations 2
GAMG:  Solving for p_rgh, Initial residual = 0.0123918, Final residual = 0.000183912, No Iterations 2
GAMG:  Solving for p_rgh, Initial residual = 0.000186672, Final residual = 5.97944e-06, No Iterations 3
time step continuity errors : sum local = 2.47971e-09, global = -3.37883e-21, cumulative = -9.575e-19
GAMG:  Solving for p_rgh, Initial residual = 0.000213514, Final residual = 6.78507e-06, No Iterations 2
GAMG:  Solving for p_rgh, Initial residual = 7.01032e-06, Final residual = 5.4458e-07, No Iterations 3
time step continuity errors : sum local = 2.40726e-10, global = -1.32561e-20, cumulative = -9.70756e-19
GAMG:  Solving for p_rgh, Initial residual = 3.9598e-06, Final residual = 3.97592e-07, No Iterations 1
GAMGPCG:  Solving for p_rgh, Initial residual = 4.60626e-07, Final residual = 4.60626e-07, No Iterations 0
time step continuity errors : sum local = 1.80223e-10, global = -1.17289e-20, cumulative = -9.82485e-19
ExecutionTime = 48.86 s  ClockTime = 56 s

End

