/*---------------------------------------------------------------------------*\
  =========                 |
  \\      /  F ield         | OpenFOAM: The Open Source CFD Toolbox
   \\    /   O peration     | Website:  https://openfoam.org
    \\  /    A nd           | Version:  9
     \\/     M anipulation  |
\*---------------------------------------------------------------------------*/
Build  : 9-c8374a4890ad
Exec   : icoFoam
Date   : Feb 04 2022
Time   : 11:17:02
Host   : "endeavouros"
PID    : 309616
I/O    : uncollated
Case   : /home/ariedinger/uni/gimap/openfoam/03wiki3weeksSeries/day11/01codeStreamBC/case/2Delbow_UparabolicInlet
nProcs : 1
sigFpe : Enabling floating point exception trapping (FOAM_SIGFPE).
fileModificationChecking : Monitoring run-time modified files using timeStampMaster (fileModificationSkew 10)
allowSystemOperations : Allowing user-supplied system call operations

// * * * * * * * * * * * * * * * * * * * * * * * * * * * * * * * * * * * * * //
Create time

Create mesh for time = 0

Reading transportProperties

Reading field p

Reading field U

Using #codeStream at line 25 in file "/home/ariedinger/uni/gimap/openfoam/03wiki3weeksSeries/day11/01codeStreamBC/case/2Delbow_UparabolicInlet/0/U/boundaryField/velocity-inlet-5"
Using #codeStream with "/home/ariedinger/uni/gimap/openfoam/03wiki3weeksSeries/day11/01codeStreamBC/case/2Delbow_UparabolicInlet/dynamicCode/platforms/linux64GccDPInt32Opt/lib/libcodeStream_e6c4a6634fc90c6e62152a6e5724e438371ae6e7.so"
Creating new library in "dynamicCode/_e6c4a6634fc90c6e62152a6e5724e438371ae6e7/platforms/linux64GccDPInt32Opt/lib/libcodeStream_e6c4a6634fc90c6e62152a6e5724e438371ae6e7.so"
"/opt/OpenFOAM/OpenFOAM-9/etc/codeTemplates/dynamicCode/codeStreamTemplate.C" "/home/ariedinger/uni/gimap/openfoam/03wiki3weeksSeries/day11/01codeStreamBC/case/2Delbow_UparabolicInlet/dynamicCode/_e6c4a6634fc90c6e62152a6e5724e438371ae6e7/codeStreamTemplate.C"
Invoking "wmake -s libso /home/ariedinger/uni/gimap/openfoam/03wiki3weeksSeries/day11/01codeStreamBC/case/2Delbow_UparabolicInlet/dynamicCode/_e6c4a6634fc90c6e62152a6e5724e438371ae6e7"
wmake libso /home/ariedinger/uni/gimap/openfoam/03wiki3weeksSeries/day11/01codeStreamBC/case/2Delbow_UparabolicInlet/dynamicCode/_e6c4a6634fc90c6e62152a6e5724e438371ae6e7
    wmkdep: codeStreamTemplate.C
    Ctoo: codeStreamTemplate.C
    ld: /home/ariedinger/uni/gimap/openfoam/03wiki3weeksSeries/day11/01codeStreamBC/case/2Delbow_UparabolicInlet/dynamicCode/_e6c4a6634fc90c6e62152a6e5724e438371ae6e7/../platforms/linux64GccDPInt32Opt/lib/libcodeStream_e6c4a6634fc90c6e62152a6e5724e438371ae6e7.so
codeStream : dictionary:"/home/ariedinger/uni/gimap/openfoam/03wiki3weeksSeries/day11/01codeStreamBC/case/2Delbow_UparabolicInlet/0/U/boundaryField/velocity-inlet-5" master-only-reading:0

on processor 0 have masterSize:752032 and localSize:752032

on processor 0 after waiting: have masterSize:752032 and localSize:752032
Opening cached dictionary:"/home/ariedinger/uni/gimap/openfoam/03wiki3weeksSeries/day11/01codeStreamBC/case/2Delbow_UparabolicInlet/dynamicCode/platforms/linux64GccDPInt32Opt/lib/libcodeStream_e6c4a6634fc90c6e62152a6e5724e438371ae6e7.so"
codeStream : dictionary:"/home/ariedinger/uni/gimap/openfoam/03wiki3weeksSeries/day11/01codeStreamBC/case/2Delbow_UparabolicInlet/0/U/boundaryField/velocity-inlet-5" master-only-reading:0
Reading/calculating face flux field phi


Starting time loop

--> FOAM Warning : 
    From function bool Foam::functionObjectList::read()
    in file db/functionObjects/functionObjectList/functionObjectList.C at line 853
    Caught FatalError 
--> FOAM FATAL ERROR: 
Unknown function type fieldMinMax

Valid functions are : 

58
(
CourantNo
Lambda2
MachNo
PecletNo
Q
XiReactionRate
add
age
blendingFactor
comfort
components
cylindrical
ddt
div
divide
enstrophy
fieldAverage
fieldCoordinateSystemTransform
fieldValueDelta
flowType
grad
histogram
interfaceHeight
log
mag
magSqr
multiply
nearWallFields
patchProbes
pressure
probes
processorField
psiReactionThermoMoleFractions
randomise
readFields
regionSizeDistribution
rhoReactionThermoMoleFractions
scale
sets
shearStress
streamFunction
streamlines
subtract
surfaceFieldValue
surfaceInterpolate
surfaces
totalEnthalpy
turbulenceFields
turbulenceIntensity
uniform
volFieldValue
vorticity
wallHeatFlux
wallHeatTransferCoeff
wallShearStress
writeCellCentres
writeCellVolumes
yPlus
)



    From function static Foam::autoPtr<Foam::functionObject> Foam::functionObject::New(const Foam::word&, const Foam::Time&, const Foam::dictionary&)
    in file db/functionObjects/functionObject/functionObject.C at line 101.

Time = 0.05

Courant Number mean: 0.00049764395 max: 0.17320508
smoothSolver:  Solving for Ux, Initial residual = 1, Final residual = 2.6426647e-13, No Iterations 2
smoothSolver:  Solving for Uy, Initial residual = 1, Final residual = 1.9476307e-11, No Iterations 2
DICPCG:  Solving for p, Initial residual = 1, Final residual = 0.0084697811, No Iterations 64
DICPCG:  Solving for p, Initial residual = 0.096952206, Final residual = 0.00084118464, No Iterations 42
DICPCG:  Solving for p, Initial residual = 0.0098103474, Final residual = 7.8324753e-05, No Iterations 52
time step continuity errors : sum local = 1.4534311e-05, global = -2.4620069e-08, cumulative = -2.4620069e-08
DICPCG:  Solving for p, Initial residual = 0.0014448634, Final residual = 1.3729746e-05, No Iterations 57
DICPCG:  Solving for p, Initial residual = 0.00028676229, Final residual = 2.710377e-06, No Iterations 53
DICPCG:  Solving for p, Initial residual = 4.0709023e-05, Final residual = 8.6602728e-07, No Iterations 12
time step continuity errors : sum local = 1.6046083e-07, global = 1.8753251e-08, cumulative = -5.866818e-09
ExecutionTime = 0.26 s  ClockTime = 13 s

Time = 0.1

Courant Number mean: 0.095752169 max: 0.38053287
smoothSolver:  Solving for Ux, Initial residual = 0.41731601, Final residual = 5.8242181e-09, No Iterations 3
smoothSolver:  Solving for Uy, Initial residual = 0.42162068, Final residual = 2.9902385e-09, No Iterations 4
DICPCG:  Solving for p, Initial residual = 0.019030417, Final residual = 0.00015356444, No Iterations 63
DICPCG:  Solving for p, Initial residual = 0.43282149, Final residual = 0.0037614592, No Iterations 42
DICPCG:  Solving for p, Initial residual = 0.08157574, Final residual = 0.00055315784, No Iterations 51
time step continuity errors : sum local = 1.2310038e-05, global = 1.016694e-07, cumulative = 9.5802586e-08
DICPCG:  Solving for p, Initial residual = 0.052405046, Final residual = 0.00049289509, No Iterations 61
DICPCG:  Solving for p, Initial residual = 0.32898553, Final residual = 0.0032624477, No Iterations 42
DICPCG:  Solving for p, Initial residual = 0.04426291, Final residual = 8.0038641e-07, No Iterations 71
time step continuity errors : sum local = 3.441613e-09, global = 1.8240834e-11, cumulative = 9.5820827e-08
ExecutionTime = 0.28 s  ClockTime = 13 s

Time = 0.15

Courant Number mean: 0.095760672 max: 0.38719827
smoothSolver:  Solving for Ux, Initial residual = 0.020521638, Final residual = 5.2565013e-09, No Iterations 3
smoothSolver:  Solving for Uy, Initial residual = 0.012275203, Final residual = 2.4845904e-09, No Iterations 3
DICPCG:  Solving for p, Initial residual = 0.25081298, Final residual = 0.0024112296, No Iterations 19
DICPCG:  Solving for p, Initial residual = 0.040804907, Final residual = 0.00037443139, No Iterations 55
DICPCG:  Solving for p, Initial residual = 0.0092999128, Final residual = 8.7648272e-05, No Iterations 48
time step continuity errors : sum local = 2.2786897e-07, global = -2.940274e-09, cumulative = 9.2880553e-08
DICPCG:  Solving for p, Initial residual = 0.014779111, Final residual = 0.00013670204, No Iterations 47
DICPCG:  Solving for p, Initial residual = 0.0033771434, Final residual = 3.328193e-05, No Iterations 20
DICPCG:  Solving for p, Initial residual = 0.00035557727, Final residual = 9.3462268e-07, No Iterations 58
time step continuity errors : sum local = 2.4599249e-09, global = -1.7043255e-10, cumulative = 9.2710121e-08
ExecutionTime = 0.3 s  ClockTime = 13 s

Time = 0.2

Courant Number mean: 0.095769651 max: 0.38903904
smoothSolver:  Solving for Ux, Initial residual = 0.015140363, Final residual = 3.9585857e-09, No Iterations 3
smoothSolver:  Solving for Uy, Initial residual = 0.0088834925, Final residual = 1.7639852e-09, No Iterations 3
DICPCG:  Solving for p, Initial residual = 0.13147694, Final residual = 0.0012371258, No Iterations 41
DICPCG:  Solving for p, Initial residual = 0.015908056, Final residual = 0.00012093246, No Iterations 53
DICPCG:  Solving for p, Initial residual = 0.0019838594, Final residual = 1.949233e-05, No Iterations 21
time step continuity errors : sum local = 3.9853037e-08, global = -3.7632437e-09, cumulative = 8.8946877e-08
DICPCG:  Solving for p, Initial residual = 0.0065336582, Final residual = 6.0035947e-05, No Iterations 44
DICPCG:  Solving for p, Initial residual = 0.0014345147, Final residual = 1.2665808e-05, No Iterations 15
DICPCG:  Solving for p, Initial residual = 0.00016029286, Final residual = 9.6074046e-07, No Iterations 58
time step continuity errors : sum local = 1.9693638e-09, global = -2.8245081e-11, cumulative = 8.8918632e-08
ExecutionTime = 0.31 s  ClockTime = 13 s

Time = 0.25

Courant Number mean: 0.095789827 max: 0.38958994
smoothSolver:  Solving for Ux, Initial residual = 0.012693962, Final residual = 2.9510337e-09, No Iterations 3
smoothSolver:  Solving for Uy, Initial residual = 0.00732978, Final residual = 1.4108357e-09, No Iterations 3
DICPCG:  Solving for p, Initial residual = 0.10434674, Final residual = 0.0010117013, No Iterations 45
DICPCG:  Solving for p, Initial residual = 0.01090982, Final residual = 0.00010521446, No Iterations 27
DICPCG:  Solving for p, Initial residual = 0.0014394402, Final residual = 1.4243871e-05, No Iterations 51
time step continuity errors : sum local = 2.5301357e-08, global = -1.9415278e-10, cumulative = 8.8724479e-08
DICPCG:  Solving for p, Initial residual = 0.0045230817, Final residual = 3.7881277e-05, No Iterations 50
DICPCG:  Solving for p, Initial residual = 0.0010294326, Final residual = 9.4558939e-06, No Iterations 19
DICPCG:  Solving for p, Initial residual = 0.0001198568, Final residual = 8.2322529e-07, No Iterations 49
time step continuity errors : sum local = 1.4607245e-09, global = -7.6335508e-11, cumulative = 8.8648144e-08
ExecutionTime = 0.32 s  ClockTime = 13 s

Time = 0.3

Courant Number mean: 0.095815097 max: 0.38942678
smoothSolver:  Solving for Ux, Initial residual = 0.010961625, Final residual = 2.1153753e-09, No Iterations 3
smoothSolver:  Solving for Uy, Initial residual = 0.0062610446, Final residual = 1.1717721e-09, No Iterations 3
DICPCG:  Solving for p, Initial residual = 0.087448522, Final residual = 0.00086641958, No Iterations 7
DICPCG:  Solving for p, Initial residual = 0.0087937901, Final residual = 7.7805824e-05, No Iterations 53
DICPCG:  Solving for p, Initial residual = 0.0028735527, Final residual = 2.7847959e-05, No Iterations 16
time step continuity errors : sum local = 4.416656e-08, global = 9.8436792e-09, cumulative = 9.8491823e-08
DICPCG:  Solving for p, Initial residual = 0.0036913101, Final residual = 3.0526264e-05, No Iterations 57
DICPCG:  Solving for p, Initial residual = 0.00085556597, Final residual = 6.8856727e-06, No Iterations 9
DICPCG:  Solving for p, Initial residual = 9.7508247e-05, Final residual = 8.9981591e-07, No Iterations 56
time step continuity errors : sum local = 1.4246208e-09, global = -2.5879194e-11, cumulative = 9.8465944e-08
ExecutionTime = 0.33 s  ClockTime = 13 s

Time = 0.35

Courant Number mean: 0.095839343 max: 0.38893775
smoothSolver:  Solving for Ux, Initial residual = 0.0096105, Final residual = 1.4964191e-09, No Iterations 3
smoothSolver:  Solving for Uy, Initial residual = 0.0054275317, Final residual = 1.0027555e-09, No Iterations 3
DICPCG:  Solving for p, Initial residual = 0.074599699, Final residual = 0.00070420676, No Iterations 7
DICPCG:  Solving for p, Initial residual = 0.0073295261, Final residual = 7.2634774e-05, No Iterations 56
DICPCG:  Solving for p, Initial residual = 0.0020299136, Final residual = 2.0216819e-05, No Iterations 42
time step continuity errors : sum local = 2.9196355e-08, global = 4.1821307e-09, cumulative = 1.0264807e-07
DICPCG:  Solving for p, Initial residual = 0.003079403, Final residual = 2.8490532e-05, No Iterations 50
DICPCG:  Solving for p, Initial residual = 0.00066886655, Final residual = 6.5002964e-06, No Iterations 21
DICPCG:  Solving for p, Initial residual = 8.1649972e-05, Final residual = 8.5805408e-07, No Iterations 53
time step continuity errors : sum local = 1.2379752e-09, global = -2.7846672e-11, cumulative = 1.0262023e-07
ExecutionTime = 0.33 s  ClockTime = 13 s

Time = 0.4

Courant Number mean: 0.095861713 max: 0.38832853
smoothSolver:  Solving for Ux, Initial residual = 0.0085428072, Final residual = 1.232106e-09, No Iterations 3
smoothSolver:  Solving for Uy, Initial residual = 0.0047854364, Final residual = 8.4452363e-10, No Iterations 3
DICPCG:  Solving for p, Initial residual = 0.066882818, Final residual = 0.00061948831, No Iterations 7
DICPCG:  Solving for p, Initial residual = 0.0065302582, Final residual = 5.5485626e-05, No Iterations 57
DICPCG:  Solving for p, Initial residual = 0.0014835191, Final residual = 1.4474449e-05, No Iterations 26
time step continuity errors : sum local = 1.9193204e-08, global = 2.5670995e-09, cumulative = 1.0518733e-07
DICPCG:  Solving for p, Initial residual = 0.0026967556, Final residual = 2.0917477e-05, No Iterations 55
DICPCG:  Solving for p, Initial residual = 0.00056903693, Final residual = 5.1981757e-06, No Iterations 9
DICPCG:  Solving for p, Initial residual = 6.5318696e-05, Final residual = 9.6700584e-07, No Iterations 47
time step continuity errors : sum local = 1.2820761e-09, global = -2.7316824e-11, cumulative = 1.0516001e-07
ExecutionTime = 0.34 s  ClockTime = 13 s

Time = 0.45

Courant Number mean: 0.095882129 max: 0.38786552
smoothSolver:  Solving for Ux, Initial residual = 0.0076764673, Final residual = 1.022234e-09, No Iterations 3
smoothSolver:  Solving for Uy, Initial residual = 0.0042621384, Final residual = 7.217195e-10, No Iterations 3
DICPCG:  Solving for p, Initial residual = 0.060176936, Final residual = 0.0005637392, No Iterations 7
DICPCG:  Solving for p, Initial residual = 0.0058806789, Final residual = 4.8471418e-05, No Iterations 58
DICPCG:  Solving for p, Initial residual = 0.0011538645, Final residual = 1.0422397e-05, No Iterations 22
time step continuity errors : sum local = 1.2798988e-08, global = 1.0713727e-09, cumulative = 1.0623138e-07
DICPCG:  Solving for p, Initial residual = 0.0024626082, Final residual = 2.2349676e-05, No Iterations 55
DICPCG:  Solving for p, Initial residual = 0.00051533644, Final residual = 4.6510871e-06, No Iterations 9
DICPCG:  Solving for p, Initial residual = 5.5665407e-05, Final residual = 5.992252e-07, No Iterations 49
time step continuity errors : sum local = 7.3612848e-10, global = 3.5419316e-12, cumulative = 1.0623493e-07
ExecutionTime = 0.35 s  ClockTime = 13 s

Time = 0.5

Courant Number mean: 0.095901156 max: 0.3874218
smoothSolver:  Solving for Ux, Initial residual = 0.0069421968, Final residual = 1.2040206e-09, No Iterations 3
smoothSolver:  Solving for Uy, Initial residual = 0.00382554, Final residual = 5.7879915e-10, No Iterations 3
DICPCG:  Solving for p, Initial residual = 0.055567587, Final residual = 0.00054112779, No Iterations 7
DICPCG:  Solving for p, Initial residual = 0.0055499091, Final residual = 5.277247e-05, No Iterations 56
DICPCG:  Solving for p, Initial residual = 0.00098038893, Final residual = 9.3173272e-06, No Iterations 20
time step continuity errors : sum local = 1.0646532e-08, global = -1.0379977e-10, cumulative = 1.0613113e-07
DICPCG:  Solving for p, Initial residual = 0.002346296, Final residual = 1.986084e-05, No Iterations 24
DICPCG:  Solving for p, Initial residual = 0.00047578133, Final residual = 4.5132952e-06, No Iterations 22
DICPCG:  Solving for p, Initial residual = 5.7634394e-05, Final residual = 8.9624186e-07, No Iterations 44
time step continuity errors : sum local = 1.0249468e-09, global = -1.6568425e-11, cumulative = 1.0611456e-07
ExecutionTime = 0.35 s  ClockTime = 13 s

Time = 0.55

Courant Number mean: 0.095918403 max: 0.38705922
smoothSolver:  Solving for Ux, Initial residual = 0.0063148203, Final residual = 1.158743e-09, No Iterations 3
smoothSolver:  Solving for Uy, Initial residual = 0.0034587419, Final residual = 4.8597908e-10, No Iterations 3
DICPCG:  Solving for p, Initial residual = 0.051697855, Final residual = 0.00044526132, No Iterations 14
DICPCG:  Solving for p, Initial residual = 0.005412074, Final residual = 4.5574973e-05, No Iterations 26
DICPCG:  Solving for p, Initial residual = 0.00072475443, Final residual = 6.5965755e-06, No Iterations 51
time step continuity errors : sum local = 7.0726235e-09, global = 1.4117081e-10, cumulative = 1.0625573e-07
DICPCG:  Solving for p, Initial residual = 0.0021560218, Final residual = 1.7590815e-05, No Iterations 24
DICPCG:  Solving for p, Initial residual = 0.00043658974, Final residual = 4.2024301e-06, No Iterations 29
DICPCG:  Solving for p, Initial residual = 5.4240763e-05, Final residual = 8.0648751e-07, No Iterations 55
time step continuity errors : sum local = 8.6493378e-10, global = -4.255754e-12, cumulative = 1.0625147e-07
ExecutionTime = 0.36 s  ClockTime = 13 s

Time = 0.6

Courant Number mean: 0.095935657 max: 0.38796544
smoothSolver:  Solving for Ux, Initial residual = 0.0058078975, Final residual = 1.153072e-09, No Iterations 3
smoothSolver:  Solving for Uy, Initial residual = 0.0031512079, Final residual = 4.0241903e-10, No Iterations 3
DICPCG:  Solving for p, Initial residual = 0.04690035, Final residual = 0.00042615589, No Iterations 7
DICPCG:  Solving for p, Initial residual = 0.0049777333, Final residual = 4.5616098e-05, No Iterations 57
DICPCG:  Solving for p, Initial residual = 0.00081657619, Final residual = 8.1393718e-06, No Iterations 17
time step continuity errors : sum local = 8.2111889e-09, global = -6.7843133e-10, cumulative = 1.0557304e-07
DICPCG:  Solving for p, Initial residual = 0.0019652906, Final residual = 1.7475555e-05, No Iterations 24
DICPCG:  Solving for p, Initial residual = 0.00038240023, Final residual = 3.1472644e-06, No Iterations 47
DICPCG:  Solving for p, Initial residual = 6.2056163e-05, Final residual = 9.8986566e-07, No Iterations 14
time step continuity errors : sum local = 9.9965655e-10, global = 1.5399592e-10, cumulative = 1.0572704e-07
ExecutionTime = 0.37 s  ClockTime = 13 s

Time = 0.65

Courant Number mean: 0.095951909 max: 0.38903696
smoothSolver:  Solving for Ux, Initial residual = 0.0053729299, Final residual = 1.1397623e-09, No Iterations 3
smoothSolver:  Solving for Uy, Initial residual = 0.0028947137, Final residual = 3.4009226e-10, No Iterations 3
DICPCG:  Solving for p, Initial residual = 0.043883152, Final residual = 0.00037888557, No Iterations 7
DICPCG:  Solving for p, Initial residual = 0.0046192518, Final residual = 4.5483633e-05, No Iterations 56
DICPCG:  Solving for p, Initial residual = 0.00081203011, Final residual = 7.0715893e-06, No Iterations 18
time step continuity errors : sum local = 6.7402379e-09, global = -1.2550175e-09, cumulative = 1.0447202e-07
DICPCG:  Solving for p, Initial residual = 0.0018967822, Final residual = 1.8856973e-05, No Iterations 45
DICPCG:  Solving for p, Initial residual = 0.00036434203, Final residual = 3.5428244e-06, No Iterations 53
DICPCG:  Solving for p, Initial residual = 5.6590033e-05, Final residual = 9.6576326e-07, No Iterations 14
time step continuity errors : sum local = 9.2166033e-10, global = 5.3608696e-11, cumulative = 1.0452563e-07
ExecutionTime = 0.37 s  ClockTime = 13 s

Time = 0.7

Courant Number mean: 0.095966395 max: 0.38994454
smoothSolver:  Solving for Ux, Initial residual = 0.0049969772, Final residual = 1.0542263e-09, No Iterations 3
smoothSolver:  Solving for Uy, Initial residual = 0.0026776146, Final residual = 3.1865121e-10, No Iterations 3
DICPCG:  Solving for p, Initial residual = 0.040968722, Final residual = 0.00036053929, No Iterations 7
DICPCG:  Solving for p, Initial residual = 0.0042164427, Final residual = 3.6824743e-05, No Iterations 57
DICPCG:  Solving for p, Initial residual = 0.00080465379, Final residual = 7.2437758e-06, No Iterations 18
time step continuity errors : sum local = 6.5577005e-09, global = -1.5466392e-09, cumulative = 1.0297899e-07
DICPCG:  Solving for p, Initial residual = 0.0017916446, Final residual = 1.3506554e-05, No Iterations 57
DICPCG:  Solving for p, Initial residual = 0.00032189814, Final residual = 2.8146494e-06, No Iterations 9
DICPCG:  Solving for p, Initial residual = 3.5596755e-05, Final residual = 9.4310444e-07, No Iterations 13
time step continuity errors : sum local = 8.5483772e-10, global = -1.0118797e-10, cumulative = 1.028778e-07
ExecutionTime = 0.38 s  ClockTime = 13 s

Time = 0.75

Courant Number mean: 0.095979602 max: 0.39071662
smoothSolver:  Solving for Ux, Initial residual = 0.0046650582, Final residual = 8.9140603e-10, No Iterations 3
smoothSolver:  Solving for Uy, Initial residual = 0.0024871421, Final residual = 2.7002421e-10, No Iterations 3
DICPCG:  Solving for p, Initial residual = 0.038512116, Final residual = 0.00033268808, No Iterations 7
DICPCG:  Solving for p, Initial residual = 0.0039817109, Final residual = 3.3382528e-05, No Iterations 57
DICPCG:  Solving for p, Initial residual = 0.00079814532, Final residual = 7.7432819e-06, No Iterations 19
time step continuity errors : sum local = 6.6856677e-09, global = -1.7176192e-09, cumulative = 1.0116018e-07
DICPCG:  Solving for p, Initial residual = 0.0016766664, Final residual = 1.5048232e-05, No Iterations 56
DICPCG:  Solving for p, Initial residual = 0.00030042229, Final residual = 2.3091605e-06, No Iterations 10
DICPCG:  Solving for p, Initial residual = 3.4025192e-05, Final residual = 9.8504002e-07, No Iterations 14
time step continuity errors : sum local = 8.5157417e-10, global = -3.1983528e-11, cumulative = 1.011282e-07
ExecutionTime = 0.39 s  ClockTime = 13 s

Time = 0.8

Courant Number mean: 0.095991578 max: 0.39138612
smoothSolver:  Solving for Ux, Initial residual = 0.0043744187, Final residual = 7.7753424e-10, No Iterations 3
smoothSolver:  Solving for Uy, Initial residual = 0.0023223537, Final residual = 2.5312811e-10, No Iterations 3
DICPCG:  Solving for p, Initial residual = 0.03614344, Final residual = 0.00030911562, No Iterations 7
DICPCG:  Solving for p, Initial residual = 0.0037859008, Final residual = 2.9153214e-05, No Iterations 57
DICPCG:  Solving for p, Initial residual = 0.0008175682, Final residual = 7.0580851e-06, No Iterations 47
time step continuity errors : sum local = 5.8241778e-09, global = 3.7529743e-10, cumulative = 1.015035e-07
DICPCG:  Solving for p, Initial residual = 0.0015799215, Final residual = 1.4853223e-05, No Iterations 42
DICPCG:  Solving for p, Initial residual = 0.00028296856, Final residual = 2.8018303e-06, No Iterations 26
DICPCG:  Solving for p, Initial residual = 3.6705338e-05, Final residual = 8.0386847e-07, No Iterations 46
time step continuity errors : sum local = 6.6420978e-10, global = 2.8207658e-11, cumulative = 1.015317e-07
ExecutionTime = 0.4 s  ClockTime = 13 s

Time = 0.85

Courant Number mean: 0.096002351 max: 0.39200148
smoothSolver:  Solving for Ux, Initial residual = 0.0041191512, Final residual = 6.8114929e-10, No Iterations 3
smoothSolver:  Solving for Uy, Initial residual = 0.0021755662, Final residual = 2.4992549e-10, No Iterations 3
DICPCG:  Solving for p, Initial residual = 0.034239101, Final residual = 0.00028600865, No Iterations 7
DICPCG:  Solving for p, Initial residual = 0.003639591, Final residual = 3.292214e-05, No Iterations 50
DICPCG:  Solving for p, Initial residual = 0.00082485923, Final residual = 7.4787759e-06, No Iterations 26
time step continuity errors : sum local = 5.9109429e-09, global = -9.7401057e-10, cumulative = 1.0055769e-07
DICPCG:  Solving for p, Initial residual = 0.0014846422, Final residual = 1.4068976e-05, No Iterations 41
DICPCG:  Solving for p, Initial residual = 0.00026838074, Final residual = 2.5491092e-06, No Iterations 20
DICPCG:  Solving for p, Initial residual = 2.9642146e-05, Final residual = 7.2992193e-07, No Iterations 12
time step continuity errors : sum local = 5.7769073e-10, global = -6.5575258e-11, cumulative = 1.0049212e-07
ExecutionTime = 0.4 s  ClockTime = 13 s

Time = 0.9

Courant Number mean: 0.096014018 max: 0.39259387
smoothSolver:  Solving for Ux, Initial residual = 0.0038901483, Final residual = 6.5175617e-10, No Iterations 3
smoothSolver:  Solving for Uy, Initial residual = 0.0020438402, Final residual = 2.7198456e-10, No Iterations 3
DICPCG:  Solving for p, Initial residual = 0.033889756, Final residual = 0.00033307338, No Iterations 7
DICPCG:  Solving for p, Initial residual = 0.0037500649, Final residual = 3.6066676e-05, No Iterations 52
DICPCG:  Solving for p, Initial residual = 0.00086563893, Final residual = 7.2298607e-06, No Iterations 47
time step continuity errors : sum local = 5.4672544e-09, global = -6.7998209e-12, cumulative = 1.0048532e-07
DICPCG:  Solving for p, Initial residual = 0.0015344987, Final residual = 1.1986618e-05, No Iterations 54
DICPCG:  Solving for p, Initial residual = 0.00027770316, Final residual = 2.7438265e-06, No Iterations 11
DICPCG:  Solving for p, Initial residual = 3.0558495e-05, Final residual = 9.6559841e-07, No Iterations 13
time step continuity errors : sum local = 7.3115486e-10, global = -1.4123468e-11, cumulative = 1.0047119e-07
ExecutionTime = 0.41 s  ClockTime = 13 s

Time = 0.95

Courant Number mean: 0.0960258 max: 0.39318853
smoothSolver:  Solving for Ux, Initial residual = 0.0036747787, Final residual = 7.3168741e-10, No Iterations 3
smoothSolver:  Solving for Uy, Initial residual = 0.0019272328, Final residual = 2.9157621e-10, No Iterations 3
DICPCG:  Solving for p, Initial residual = 0.032384486, Final residual = 0.00026747856, No Iterations 7
DICPCG:  Solving for p, Initial residual = 0.0035149854, Final residual = 2.8364145e-05, No Iterations 47
DICPCG:  Solving for p, Initial residual = 0.00085131363, Final residual = 8.2300117e-06, No Iterations 47
time step continuity errors : sum local = 5.9578741e-09, global = -3.5285281e-10, cumulative = 1.0011834e-07
DICPCG:  Solving for p, Initial residual = 0.001462941, Final residual = 1.4585342e-05, No Iterations 45
DICPCG:  Solving for p, Initial residual = 0.00025860882, Final residual = 2.5366474e-06, No Iterations 26
DICPCG:  Solving for p, Initial residual = 3.1509661e-05, Final residual = 9.9080881e-07, No Iterations 38
time step continuity errors : sum local = 7.1813117e-10, global = -3.0736796e-11, cumulative = 1.000876e-07
ExecutionTime = 0.42 s  ClockTime = 13 s

Time = 1

Courant Number mean: 0.09603703 max: 0.39379477
smoothSolver:  Solving for Ux, Initial residual = 0.0034907436, Final residual = 7.7656414e-10, No Iterations 3
smoothSolver:  Solving for Uy, Initial residual = 0.0018306747, Final residual = 3.0354293e-10, No Iterations 3
DICPCG:  Solving for p, Initial residual = 0.030826228, Final residual = 0.00029361488, No Iterations 7
DICPCG:  Solving for p, Initial residual = 0.0033897211, Final residual = 3.3031397e-05, No Iterations 54
DICPCG:  Solving for p, Initial residual = 0.00083780599, Final residual = 7.1701615e-06, No Iterations 46
time step continuity errors : sum local = 4.9801159e-09, global = -8.9869856e-11, cumulative = 9.9997734e-08
DICPCG:  Solving for p, Initial residual = 0.0013953097, Final residual = 1.2130827e-05, No Iterations 35
DICPCG:  Solving for p, Initial residual = 0.00024919425, Final residual = 2.2421804e-06, No Iterations 24
DICPCG:  Solving for p, Initial residual = 2.6614308e-05, Final residual = 9.6988717e-07, No Iterations 15
time step continuity errors : sum local = 6.7440086e-10, global = -1.23326e-10, cumulative = 9.9874408e-08
ExecutionTime = 0.43 s  ClockTime = 13 s

Time = 1.05

Courant Number mean: 0.096048073 max: 0.39442278
smoothSolver:  Solving for Ux, Initial residual = 0.003328108, Final residual = 8.0331392e-10, No Iterations 3
smoothSolver:  Solving for Uy, Initial residual = 0.0017494205, Final residual = 3.1212844e-10, No Iterations 3
DICPCG:  Solving for p, Initial residual = 0.029886442, Final residual = 0.00028193078, No Iterations 16
DICPCG:  Solving for p, Initial residual = 0.0033572618, Final residual = 2.8933469e-05, No Iterations 46
DICPCG:  Solving for p, Initial residual = 0.00082442957, Final residual = 5.3051231e-06, No Iterations 35
time step continuity errors : sum local = 3.5470515e-09, global = 5.9469243e-11, cumulative = 9.9933878e-08
DICPCG:  Solving for p, Initial residual = 0.0013904861, Final residual = 1.0889574e-05, No Iterations 49
DICPCG:  Solving for p, Initial residual = 0.00024935437, Final residual = 2.041878e-06, No Iterations 23
DICPCG:  Solving for p, Initial residual = 2.7771253e-05, Final residual = 8.9672737e-07, No Iterations 7
time step continuity errors : sum local = 6.0020177e-10, global = -3.8332539e-11, cumulative = 9.9895545e-08
ExecutionTime = 0.44 s  ClockTime = 13 s

Time = 1.1

Courant Number mean: 0.096058902 max: 0.39509148
smoothSolver:  Solving for Ux, Initial residual = 0.0031740221, Final residual = 8.1273669e-10, No Iterations 3
smoothSolver:  Solving for Uy, Initial residual = 0.0016802966, Final residual = 3.1644185e-10, No Iterations 3
DICPCG:  Solving for p, Initial residual = 0.029443329, Final residual = 0.00028895205, No Iterations 17
DICPCG:  Solving for p, Initial residual = 0.0034605571, Final residual = 3.3093202e-05, No Iterations 48
DICPCG:  Solving for p, Initial residual = 0.00082370884, Final residual = 6.2131612e-06, No Iterations 42
time step continuity errors : sum local = 4.0058069e-09, global = -1.4699371e-10, cumulative = 9.9748551e-08
DICPCG:  Solving for p, Initial residual = 0.001386165, Final residual = 1.304185e-05, No Iterations 49
DICPCG:  Solving for p, Initial residual = 0.00025255888, Final residual = 2.244688e-06, No Iterations 26
DICPCG:  Solving for p, Initial residual = 2.9957251e-05, Final residual = 9.7500134e-07, No Iterations 40
time step continuity errors : sum local = 6.2927014e-10, global = -1.927709e-11, cumulative = 9.9729274e-08
ExecutionTime = 0.45 s  ClockTime = 13 s

Time = 1.15

Courant Number mean: 0.096072618 max: 0.39582396
smoothSolver:  Solving for Ux, Initial residual = 0.0030246769, Final residual = 7.9697707e-10, No Iterations 3
smoothSolver:  Solving for Uy, Initial residual = 0.001617877, Final residual = 3.2138547e-10, No Iterations 3
DICPCG:  Solving for p, Initial residual = 0.029378451, Final residual = 0.00024657173, No Iterations 17
DICPCG:  Solving for p, Initial residual = 0.0032431026, Final residual = 3.1559586e-05, No Iterations 53
DICPCG:  Solving for p, Initial residual = 0.00076565513, Final residual = 6.4759369e-06, No Iterations 50
time step continuity errors : sum local = 4.0067674e-09, global = -2.3330696e-10, cumulative = 9.9495967e-08
DICPCG:  Solving for p, Initial residual = 0.0013435793, Final residual = 1.1032963e-05, No Iterations 44
DICPCG:  Solving for p, Initial residual = 0.00023257909, Final residual = 2.1921003e-06, No Iterations 19
DICPCG:  Solving for p, Initial residual = 2.9005554e-05, Final residual = 8.5552088e-07, No Iterations 13
time step continuity errors : sum local = 5.2984913e-10, global = 4.255358e-11, cumulative = 9.9538521e-08
ExecutionTime = 0.46 s  ClockTime = 13 s

Time = 1.2

Courant Number mean: 0.096088288 max: 0.39658118
smoothSolver:  Solving for Ux, Initial residual = 0.0028830974, Final residual = 7.6392979e-10, No Iterations 3
smoothSolver:  Solving for Uy, Initial residual = 0.001549689, Final residual = 3.1917832e-10, No Iterations 3
DICPCG:  Solving for p, Initial residual = 0.028583602, Final residual = 0.00024107045, No Iterations 8
DICPCG:  Solving for p, Initial residual = 0.0030125487, Final residual = 2.6544741e-05, No Iterations 55
DICPCG:  Solving for p, Initial residual = 0.0008151863, Final residual = 7.9038822e-06, No Iterations 37
time step continuity errors : sum local = 4.7161071e-09, global = -1.211273e-10, cumulative = 9.9417394e-08
DICPCG:  Solving for p, Initial residual = 0.0012881248, Final residual = 1.2710813e-05, No Iterations 44
DICPCG:  Solving for p, Initial residual = 0.00022210345, Final residual = 2.109511e-06, No Iterations 13
DICPCG:  Solving for p, Initial residual = 2.1577602e-05, Final residual = 9.5823813e-07, No Iterations 15
time step continuity errors : sum local = 5.7235504e-10, global = -2.8897958e-11, cumulative = 9.9388496e-08
ExecutionTime = 0.46 s  ClockTime = 13 s

Time = 1.25

Courant Number mean: 0.096105549 max: 0.39740639
smoothSolver:  Solving for Ux, Initial residual = 0.0027598161, Final residual = 7.2131079e-10, No Iterations 3
smoothSolver:  Solving for Uy, Initial residual = 0.0014909777, Final residual = 3.1067653e-10, No Iterations 3
DICPCG:  Solving for p, Initial residual = 0.027248661, Final residual = 0.00026689116, No Iterations 19
DICPCG:  Solving for p, Initial residual = 0.0030016153, Final residual = 2.5395213e-05, No Iterations 53
DICPCG:  Solving for p, Initial residual = 0.00075298163, Final residual = 7.1680873e-06, No Iterations 40
time step continuity errors : sum local = 4.1279985e-09, global = -4.6629502e-10, cumulative = 9.8922201e-08
DICPCG:  Solving for p, Initial residual = 0.0012418118, Final residual = 1.2056388e-05, No Iterations 50
DICPCG:  Solving for p, Initial residual = 0.00021914491, Final residual = 2.0391713e-06, No Iterations 28
DICPCG:  Solving for p, Initial residual = 2.721242e-05, Final residual = 9.1552741e-07, No Iterations 38
time step continuity errors : sum local = 5.2775512e-10, global = -4.3254322e-11, cumulative = 9.8878946e-08
ExecutionTime = 0.47 s  ClockTime = 13 s

Time = 1.3

Courant Number mean: 0.096122909 max: 0.39963611
smoothSolver:  Solving for Ux, Initial residual = 0.0026538742, Final residual = 6.7939937e-10, No Iterations 3
smoothSolver:  Solving for Uy, Initial residual = 0.001441848, Final residual = 3.031934e-10, No Iterations 3
DICPCG:  Solving for p, Initial residual = 0.026964156, Final residual = 0.00026716142, No Iterations 12
DICPCG:  Solving for p, Initial residual = 0.002945005, Final residual = 2.8265797e-05, No Iterations 55
DICPCG:  Solving for p, Initial residual = 0.00073721622, Final residual = 6.236327e-06, No Iterations 40
time step continuity errors : sum local = 3.4671244e-09, global = -2.8816328e-10, cumulative = 9.8590783e-08
DICPCG:  Solving for p, Initial residual = 0.0012226668, Final residual = 9.7780447e-06, No Iterations 49
DICPCG:  Solving for p, Initial residual = 0.00021760217, Final residual = 2.1254162e-06, No Iterations 25
DICPCG:  Solving for p, Initial residual = 2.3808407e-05, Final residual = 9.5361902e-07, No Iterations 5
time step continuity errors : sum local = 5.3068513e-10, global = -5.0476886e-12, cumulative = 9.8585735e-08
ExecutionTime = 0.48 s  ClockTime = 13 s

Time = 1.35

Courant Number mean: 0.096139894 max: 0.40347723
smoothSolver:  Solving for Ux, Initial residual = 0.0025666274, Final residual = 6.4996416e-10, No Iterations 3
smoothSolver:  Solving for Uy, Initial residual = 0.0013965024, Final residual = 2.9510457e-10, No Iterations 3
DICPCG:  Solving for p, Initial residual = 0.025936614, Final residual = 0.00023088561, No Iterations 20
DICPCG:  Solving for p, Initial residual = 0.0028642868, Final residual = 2.8215275e-05, No Iterations 55
DICPCG:  Solving for p, Initial residual = 0.0007134942, Final residual = 6.1838257e-06, No Iterations 14
time step continuity errors : sum local = 3.3257176e-09, global = -1.008718e-09, cumulative = 9.7577017e-08
DICPCG:  Solving for p, Initial residual = 0.001183011, Final residual = 9.4251899e-06, No Iterations 58
DICPCG:  Solving for p, Initial residual = 0.00022613567, Final residual = 2.1491783e-06, No Iterations 12
DICPCG:  Solving for p, Initial residual = 2.0467637e-05, Final residual = 9.3024954e-07, No Iterations 14
time step continuity errors : sum local = 5.0081617e-10, global = 7.2791081e-11, cumulative = 9.7649808e-08
ExecutionTime = 0.49 s  ClockTime = 13 s

Time = 1.4

Courant Number mean: 0.096156381 max: 0.40723878
smoothSolver:  Solving for Ux, Initial residual = 0.0024845909, Final residual = 6.2407148e-10, No Iterations 3
smoothSolver:  Solving for Uy, Initial residual = 0.0013579066, Final residual = 2.9217851e-10, No Iterations 3
DICPCG:  Solving for p, Initial residual = 0.025706335, Final residual = 0.0002248921, No Iterations 20
DICPCG:  Solving for p, Initial residual = 0.0028767863, Final residual = 2.4745301e-05, No Iterations 55
DICPCG:  Solving for p, Initial residual = 0.00071310406, Final residual = 6.5240371e-06, No Iterations 14
time step continuity errors : sum local = 3.402738e-09, global = -9.7949609e-10, cumulative = 9.6670312e-08
DICPCG:  Solving for p, Initial residual = 0.0011771747, Final residual = 1.0365988e-05, No Iterations 58
DICPCG:  Solving for p, Initial residual = 0.00022933902, Final residual = 2.1466407e-06, No Iterations 12
DICPCG:  Solving for p, Initial residual = 2.1272084e-05, Final residual = 9.3880012e-07, No Iterations 14
time step continuity errors : sum local = 4.901201e-10, global = 6.5168829e-11, cumulative = 9.6735481e-08
ExecutionTime = 0.49 s  ClockTime = 13 s

Time = 1.45

Courant Number mean: 0.096172616 max: 0.41091657
smoothSolver:  Solving for Ux, Initial residual = 0.0024017662, Final residual = 5.8509659e-10, No Iterations 3
smoothSolver:  Solving for Uy, Initial residual = 0.0013232026, Final residual = 2.9069768e-10, No Iterations 3
DICPCG:  Solving for p, Initial residual = 0.025323935, Final residual = 0.00021880209, No Iterations 20
DICPCG:  Solving for p, Initial residual = 0.0027696654, Final residual = 2.7025921e-05, No Iterations 55
DICPCG:  Solving for p, Initial residual = 0.00068730332, Final residual = 6.2953423e-06, No Iterations 14
time step continuity errors : sum local = 3.187526e-09, global = -8.9969686e-10, cumulative = 9.5835784e-08
DICPCG:  Solving for p, Initial residual = 0.0011673128, Final residual = 1.0682385e-05, No Iterations 58
DICPCG:  Solving for p, Initial residual = 0.00022282419, Final residual = 2.1871587e-06, No Iterations 12
DICPCG:  Solving for p, Initial residual = 2.1332911e-05, Final residual = 9.2353435e-07, No Iterations 14
time step continuity errors : sum local = 4.6799481e-10, global = 6.4052453e-11, cumulative = 9.5899837e-08
ExecutionTime = 0.5 s  ClockTime = 13 s

Time = 1.5

Courant Number mean: 0.09618882 max: 0.41449382
smoothSolver:  Solving for Ux, Initial residual = 0.0023244634, Final residual = 5.4279341e-10, No Iterations 3
smoothSolver:  Solving for Uy, Initial residual = 0.0012907901, Final residual = 2.9098594e-10, No Iterations 3
DICPCG:  Solving for p, Initial residual = 0.02467309, Final residual = 0.00022175362, No Iterations 20
DICPCG:  Solving for p, Initial residual = 0.002667555, Final residual = 2.2136907e-05, No Iterations 52
DICPCG:  Solving for p, Initial residual = 0.0006559159, Final residual = 5.5570572e-06, No Iterations 45
time step continuity errors : sum local = 2.7358967e-09, global = -1.0209593e-10, cumulative = 9.5797741e-08
DICPCG:  Solving for p, Initial residual = 0.0011190301, Final residual = 1.0779443e-05, No Iterations 58
DICPCG:  Solving for p, Initial residual = 0.00020015866, Final residual = 1.893754e-06, No Iterations 15
DICPCG:  Solving for p, Initial residual = 1.9754492e-05, Final residual = 8.6426463e-07, No Iterations 8
time step continuity errors : sum local = 4.2580346e-10, global = 1.0252975e-12, cumulative = 9.5798766e-08
ExecutionTime = 0.5 s  ClockTime = 13 s

Time = 1.55

Courant Number mean: 0.096204704 max: 0.41795121
smoothSolver:  Solving for Ux, Initial residual = 0.0022496463, Final residual = 4.980107e-10, No Iterations 3
smoothSolver:  Solving for Uy, Initial residual = 0.0012608114, Final residual = 2.9699832e-10, No Iterations 3
DICPCG:  Solving for p, Initial residual = 0.0240983, Final residual = 0.00021838991, No Iterations 20
DICPCG:  Solving for p, Initial residual = 0.0026427937, Final residual = 1.8730211e-05, No Iterations 52
DICPCG:  Solving for p, Initial residual = 0.00062637442, Final residual = 5.7895124e-06, No Iterations 44
time step continuity errors : sum local = 2.7760184e-09, global = -1.218992e-10, cumulative = 9.5676867e-08
DICPCG:  Solving for p, Initial residual = 0.0010897785, Final residual = 6.5875906e-06, No Iterations 59
DICPCG:  Solving for p, Initial residual = 0.0001961427, Final residual = 1.7687623e-06, No Iterations 15
DICPCG:  Solving for p, Initial residual = 1.878071e-05, Final residual = 7.8271906e-07, No Iterations 8
time step continuity errors : sum local = 3.7556442e-10, global = -1.6676738e-12, cumulative = 9.5675199e-08
ExecutionTime = 0.51 s  ClockTime = 13 s

Time = 1.6

Courant Number mean: 0.09622048 max: 0.42126917
smoothSolver:  Solving for Ux, Initial residual = 0.0021822104, Final residual = 4.5870471e-10, No Iterations 3
smoothSolver:  Solving for Uy, Initial residual = 0.0012325744, Final residual = 3.0058967e-10, No Iterations 3
DICPCG:  Solving for p, Initial residual = 0.023761125, Final residual = 0.00022494376, No Iterations 20
DICPCG:  Solving for p, Initial residual = 0.0026270625, Final residual = 2.3387604e-05, No Iterations 52
DICPCG:  Solving for p, Initial residual = 0.00062628476, Final residual = 5.8802159e-06, No Iterations 40
time step continuity errors : sum local = 2.7483137e-09, global = -3.5213923e-10, cumulative = 9.532306e-08
DICPCG:  Solving for p, Initial residual = 0.0010560704, Final residual = 8.0279654e-06, No Iterations 59
DICPCG:  Solving for p, Initial residual = 0.00019708252, Final residual = 1.825707e-06, No Iterations 16
DICPCG:  Solving for p, Initial residual = 1.8609467e-05, Final residual = 7.7219901e-07, No Iterations 9
time step continuity errors : sum local = 3.6117729e-10, global = -9.7495127e-12, cumulative = 9.531331e-08
ExecutionTime = 0.52 s  ClockTime = 13 s

Time = 1.65

Courant Number mean: 0.096235988 max: 0.42444357
smoothSolver:  Solving for Ux, Initial residual = 0.002121522, Final residual = 4.2229449e-10, No Iterations 3
smoothSolver:  Solving for Uy, Initial residual = 0.0012041038, Final residual = 3.0331426e-10, No Iterations 3
DICPCG:  Solving for p, Initial residual = 0.023191965, Final residual = 0.00023008768, No Iterations 20
DICPCG:  Solving for p, Initial residual = 0.0025444464, Final residual = 1.9093609e-05, No Iterations 53
DICPCG:  Solving for p, Initial residual = 0.00061204762, Final residual = 6.0087392e-06, No Iterations 40
time step continuity errors : sum local = 2.7416009e-09, global = -3.174277e-10, cumulative = 9.4995883e-08
DICPCG:  Solving for p, Initial residual = 0.0010175073, Final residual = 9.4038259e-06, No Iterations 59
DICPCG:  Solving for p, Initial residual = 0.00020023881, Final residual = 1.8478787e-06, No Iterations 17
DICPCG:  Solving for p, Initial residual = 1.8805017e-05, Final residual = 8.5841032e-07, No Iterations 9
time step continuity errors : sum local = 3.919476e-10, global = -1.9694281e-11, cumulative = 9.4976188e-08
ExecutionTime = 0.53 s  ClockTime = 13 s

Time = 1.7

Courant Number mean: 0.096251576 max: 0.42748154
smoothSolver:  Solving for Ux, Initial residual = 0.0020684357, Final residual = 3.9330683e-10, No Iterations 3
smoothSolver:  Solving for Uy, Initial residual = 0.0011761408, Final residual = 3.0418492e-10, No Iterations 3
DICPCG:  Solving for p, Initial residual = 0.022799278, Final residual = 0.00020761552, No Iterations 21
DICPCG:  Solving for p, Initial residual = 0.0024656363, Final residual = 2.324069e-05, No Iterations 54
DICPCG:  Solving for p, Initial residual = 0.00057477383, Final residual = 5.57416e-06, No Iterations 14
time step continuity errors : sum local = 2.4932336e-09, global = -5.1855194e-10, cumulative = 9.4457636e-08
DICPCG:  Solving for p, Initial residual = 0.00099747424, Final residual = 7.0470079e-06, No Iterations 61
DICPCG:  Solving for p, Initial residual = 0.00020852872, Final residual = 1.9208047e-06, No Iterations 15
DICPCG:  Solving for p, Initial residual = 1.9033159e-05, Final residual = 9.293353e-07, No Iterations 8
time step continuity errors : sum local = 4.1592436e-10, global = 1.622652e-11, cumulative = 9.4473863e-08
ExecutionTime = 0.53 s  ClockTime = 13 s

Time = 1.75

Courant Number mean: 0.096266985 max: 0.43039627
smoothSolver:  Solving for Ux, Initial residual = 0.0020167909, Final residual = 3.7093885e-10, No Iterations 3
smoothSolver:  Solving for Uy, Initial residual = 0.0011521361, Final residual = 3.0538064e-10, No Iterations 3
DICPCG:  Solving for p, Initial residual = 0.02249637, Final residual = 0.0002212427, No Iterations 21
DICPCG:  Solving for p, Initial residual = 0.0024417497, Final residual = 2.0729202e-05, No Iterations 57
DICPCG:  Solving for p, Initial residual = 0.00055395611, Final residual = 5.1373188e-06, No Iterations 14
time step continuity errors : sum local = 2.2588048e-09, global = -4.5547435e-10, cumulative = 9.4018389e-08
DICPCG:  Solving for p, Initial residual = 0.00096025877, Final residual = 7.6243617e-06, No Iterations 61
DICPCG:  Solving for p, Initial residual = 0.00020988786, Final residual = 2.0483743e-06, No Iterations 16
DICPCG:  Solving for p, Initial residual = 1.9902505e-05, Final residual = 7.7487242e-07, No Iterations 9
time step continuity errors : sum local = 3.4090243e-10, global = 1.9899522e-11, cumulative = 9.4038288e-08
ExecutionTime = 0.54 s  ClockTime = 13 s

Time = 1.8

Courant Number mean: 0.096283203 max: 0.43319957
smoothSolver:  Solving for Ux, Initial residual = 0.0019642439, Final residual = 3.4699953e-10, No Iterations 3
smoothSolver:  Solving for Uy, Initial residual = 0.0011278743, Final residual = 3.0262161e-10, No Iterations 3
DICPCG:  Solving for p, Initial residual = 0.022268064, Final residual = 0.00022121501, No Iterations 12
DICPCG:  Solving for p, Initial residual = 0.0024871219, Final residual = 1.9800732e-05, No Iterations 57
DICPCG:  Solving for p, Initial residual = 0.00054544435, Final residual = 4.9215998e-06, No Iterations 41
time step continuity errors : sum local = 2.1216044e-09, global = -1.1358738e-10, cumulative = 9.3924701e-08
DICPCG:  Solving for p, Initial residual = 0.0009172985, Final residual = 7.3591413e-06, No Iterations 59
DICPCG:  Solving for p, Initial residual = 0.00018911313, Final residual = 1.7831821e-06, No Iterations 16
DICPCG:  Solving for p, Initial residual = 1.8843526e-05, Final residual = 9.1258754e-07, No Iterations 8
time step continuity errors : sum local = 3.9358917e-10, global = -6.3760085e-12, cumulative = 9.3918325e-08
ExecutionTime = 0.55 s  ClockTime = 13 s

Time = 1.85

Courant Number mean: 0.096302585 max: 0.43587782
smoothSolver:  Solving for Ux, Initial residual = 0.0019181243, Final residual = 3.2367124e-10, No Iterations 3
smoothSolver:  Solving for Uy, Initial residual = 0.0011020308, Final residual = 2.9802475e-10, No Iterations 3
DICPCG:  Solving for p, Initial residual = 0.023332141, Final residual = 0.00020951713, No Iterations 11
DICPCG:  Solving for p, Initial residual = 0.0024794709, Final residual = 2.0940321e-05, No Iterations 55
DICPCG:  Solving for p, Initial residual = 0.00052403264, Final residual = 4.9241592e-06, No Iterations 40
time step continuity errors : sum local = 2.0732857e-09, global = -8.3677827e-11, cumulative = 9.3834647e-08
DICPCG:  Solving for p, Initial residual = 0.00091184907, Final residual = 9.0901897e-06, No Iterations 53
DICPCG:  Solving for p, Initial residual = 0.00018253232, Final residual = 1.7981163e-06, No Iterations 19
DICPCG:  Solving for p, Initial residual = 2.0238106e-05, Final residual = 8.8897942e-07, No Iterations 11
time step continuity errors : sum local = 3.7444721e-10, global = -3.1024213e-11, cumulative = 9.3803623e-08
ExecutionTime = 0.55 s  ClockTime = 13 s

Time = 1.9

Courant Number mean: 0.096321271 max: 0.43842382
smoothSolver:  Solving for Ux, Initial residual = 0.0018747399, Final residual = 3.0269026e-10, No Iterations 3
smoothSolver:  Solving for Uy, Initial residual = 0.001077152, Final residual = 2.9172792e-10, No Iterations 3
DICPCG:  Solving for p, Initial residual = 0.019832438, Final residual = 0.0001978365, No Iterations 21
DICPCG:  Solving for p, Initial residual = 0.0022406858, Final residual = 1.854273e-05, No Iterations 56
DICPCG:  Solving for p, Initial residual = 0.00046497464, Final residual = 4.595189e-06, No Iterations 17
time step continuity errors : sum local = 1.9027368e-09, global = -3.6725374e-10, cumulative = 9.3436369e-08
DICPCG:  Solving for p, Initial residual = 0.00080585155, Final residual = 7.7480667e-06, No Iterations 61
DICPCG:  Solving for p, Initial residual = 0.00019907908, Final residual = 1.979961e-06, No Iterations 16
DICPCG:  Solving for p, Initial residual = 2.2022982e-05, Final residual = 9.9205824e-07, No Iterations 8
time step continuity errors : sum local = 4.1099369e-10, global = 1.4413061e-11, cumulative = 9.3450782e-08
ExecutionTime = 0.56 s  ClockTime = 13 s

Time = 1.95

Courant Number mean: 0.096339582 max: 0.44087102
smoothSolver:  Solving for Ux, Initial residual = 0.0018268423, Final residual = 2.9845141e-10, No Iterations 3
smoothSolver:  Solving for Uy, Initial residual = 0.0010555827, Final residual = 2.8620329e-10, No Iterations 3
DICPCG:  Solving for p, Initial residual = 0.019378787, Final residual = 0.00017066977, No Iterations 22
DICPCG:  Solving for p, Initial residual = 0.0021894372, Final residual = 1.6328935e-05, No Iterations 57
DICPCG:  Solving for p, Initial residual = 0.00043903221, Final residual = 4.1195918e-06, No Iterations 17
time step continuity errors : sum local = 1.6806599e-09, global = -3.3449707e-10, cumulative = 9.3116285e-08
DICPCG:  Solving for p, Initial residual = 0.00079593955, Final residual = 5.6253668e-06, No Iterations 62
DICPCG:  Solving for p, Initial residual = 0.0002011316, Final residual = 1.9138174e-06, No Iterations 17
DICPCG:  Solving for p, Initial residual = 2.2672678e-05, Final residual = 9.4666747e-07, No Iterations 9
time step continuity errors : sum local = 3.8641505e-10, global = 1.3135633e-11, cumulative = 9.3129421e-08
ExecutionTime = 0.57 s  ClockTime = 13 s

Time = 2

Courant Number mean: 0.096357812 max: 0.44323079
smoothSolver:  Solving for Ux, Initial residual = 0.0017826457, Final residual = 2.9306575e-10, No Iterations 3
smoothSolver:  Solving for Uy, Initial residual = 0.0010346919, Final residual = 2.8000549e-10, No Iterations 3
DICPCG:  Solving for p, Initial residual = 0.019518454, Final residual = 0.00018195231, No Iterations 22
DICPCG:  Solving for p, Initial residual = 0.0022351153, Final residual = 1.8746498e-05, No Iterations 57
DICPCG:  Solving for p, Initial residual = 0.00042154582, Final residual = 3.565182e-06, No Iterations 17
time step continuity errors : sum local = 1.435612e-09, global = -2.4822518e-10, cumulative = 9.2881195e-08
DICPCG:  Solving for p, Initial residual = 0.00080544138, Final residual = 5.6625413e-06, No Iterations 62
DICPCG:  Solving for p, Initial residual = 0.00020321761, Final residual = 1.9271118e-06, No Iterations 17
DICPCG:  Solving for p, Initial residual = 2.3209755e-05, Final residual = 9.7165768e-07, No Iterations 9
time step continuity errors : sum local = 3.9145921e-10, global = 1.2051161e-11, cumulative = 9.2893247e-08
ExecutionTime = 0.58 s  ClockTime = 13 s

Time = 2.05

Courant Number mean: 0.096375537 max: 0.44553197
smoothSolver:  Solving for Ux, Initial residual = 0.0017437667, Final residual = 2.8979765e-10, No Iterations 3
smoothSolver:  Solving for Uy, Initial residual = 0.0010147593, Final residual = 2.7470568e-10, No Iterations 3
DICPCG:  Solving for p, Initial residual = 0.018996029, Final residual = 0.00017524818, No Iterations 22
DICPCG:  Solving for p, Initial residual = 0.0021041097, Final residual = 1.9848651e-05, No Iterations 56
DICPCG:  Solving for p, Initial residual = 0.00039579714, Final residual = 3.555316e-06, No Iterations 17
time step continuity errors : sum local = 1.4146758e-09, global = -2.5240365e-10, cumulative = 9.2640843e-08
DICPCG:  Solving for p, Initial residual = 0.00077652322, Final residual = 5.6420375e-06, No Iterations 62
DICPCG:  Solving for p, Initial residual = 0.00020089164, Final residual = 1.9970457e-06, No Iterations 17
DICPCG:  Solving for p, Initial residual = 2.3978852e-05, Final residual = 8.1869709e-07, No Iterations 10
time step continuity errors : sum local = 3.2591862e-10, global = 1.0752839e-11, cumulative = 9.2651596e-08
ExecutionTime = 0.59 s  ClockTime = 13 s

Time = 2.1

Courant Number mean: 0.096392951 max: 0.44776485
smoothSolver:  Solving for Ux, Initial residual = 0.0017115132, Final residual = 2.8508975e-10, No Iterations 3
smoothSolver:  Solving for Uy, Initial residual = 0.00099467928, Final residual = 2.6799911e-10, No Iterations 3
DICPCG:  Solving for p, Initial residual = 0.018441133, Final residual = 0.00016361935, No Iterations 21
DICPCG:  Solving for p, Initial residual = 0.0022164067, Final residual = 1.713421e-05, No Iterations 46
DICPCG:  Solving for p, Initial residual = 0.00037090359, Final residual = 3.4490347e-06, No Iterations 16
time step continuity errors : sum local = 1.3529475e-09, global = -1.6678483e-10, cumulative = 9.2484811e-08
DICPCG:  Solving for p, Initial residual = 0.00078411538, Final residual = 7.4958862e-06, No Iterations 37
DICPCG:  Solving for p, Initial residual = 0.00021306674, Final residual = 2.0234024e-06, No Iterations 49
DICPCG:  Solving for p, Initial residual = 3.391497e-05, Final residual = 9.5524918e-07, No Iterations 18
time step continuity errors : sum local = 3.7482727e-10, global = 1.8389196e-11, cumulative = 9.25032e-08
ExecutionTime = 0.59 s  ClockTime = 13 s

Time = 2.15

Courant Number mean: 0.096411085 max: 0.44992777
smoothSolver:  Solving for Ux, Initial residual = 0.0016751364, Final residual = 2.794869e-10, No Iterations 3
smoothSolver:  Solving for Uy, Initial residual = 0.00097655067, Final residual = 2.6127771e-10, No Iterations 3
DICPCG:  Solving for p, Initial residual = 0.017862588, Final residual = 0.00016671049, No Iterations 21
DICPCG:  Solving for p, Initial residual = 0.0021399427, Final residual = 2.0301304e-05, No Iterations 56
DICPCG:  Solving for p, Initial residual = 0.00035713512, Final residual = 3.4466709e-06, No Iterations 16
time step continuity errors : sum local = 1.3350729e-09, global = -1.9046958e-10, cumulative = 9.2312731e-08
DICPCG:  Solving for p, Initial residual = 0.0007421168, Final residual = 7.2337208e-06, No Iterations 37
DICPCG:  Solving for p, Initial residual = 0.00020252897, Final residual = 1.908516e-06, No Iterations 49
DICPCG:  Solving for p, Initial residual = 3.3043744e-05, Final residual = 9.7519476e-07, No Iterations 17
time step continuity errors : sum local = 3.7786047e-10, global = 2.1752054e-11, cumulative = 9.2334483e-08
ExecutionTime = 0.6 s  ClockTime = 13 s

Time = 2.2

Courant Number mean: 0.096429299 max: 0.45202383
smoothSolver:  Solving for Ux, Initial residual = 0.0016406216, Final residual = 2.7276158e-10, No Iterations 3
smoothSolver:  Solving for Uy, Initial residual = 0.00095905395, Final residual = 2.5380436e-10, No Iterations 3
DICPCG:  Solving for p, Initial residual = 0.017573456, Final residual = 0.00015882574, No Iterations 21
DICPCG:  Solving for p, Initial residual = 0.0021105318, Final residual = 2.1036475e-05, No Iterations 47
DICPCG:  Solving for p, Initial residual = 0.00032244382, Final residual = 3.2088121e-06, No Iterations 17
time step continuity errors : sum local = 1.2288932e-09, global = -6.345311e-11, cumulative = 9.227103e-08
DICPCG:  Solving for p, Initial residual = 0.00072288231, Final residual = 6.7449273e-06, No Iterations 33
DICPCG:  Solving for p, Initial residual = 0.00019838433, Final residual = 1.9465396e-06, No Iterations 54
DICPCG:  Solving for p, Initial residual = 2.9299363e-05, Final residual = 9.5845393e-07, No Iterations 8
time step continuity errors : sum local = 3.671385e-10, global = -1.907321e-11, cumulative = 9.2251956e-08
ExecutionTime = 0.61 s  ClockTime = 13 s

Time = 2.25

Courant Number mean: 0.096447177 max: 0.45406051
smoothSolver:  Solving for Ux, Initial residual = 0.0016054238, Final residual = 2.6294303e-10, No Iterations 3
smoothSolver:  Solving for Uy, Initial residual = 0.00094295005, Final residual = 2.4582569e-10, No Iterations 3
DICPCG:  Solving for p, Initial residual = 0.016319173, Final residual = 0.0001544838, No Iterations 22
DICPCG:  Solving for p, Initial residual = 0.0018834677, Final residual = 1.3683312e-05, No Iterations 57
DICPCG:  Solving for p, Initial residual = 0.00030610704, Final residual = 2.3725383e-06, No Iterations 17
time step continuity errors : sum local = 9.0058287e-10, global = -1.437949e-10, cumulative = 9.2108161e-08
DICPCG:  Solving for p, Initial residual = 0.00065874229, Final residual = 6.1564919e-06, No Iterations 37
DICPCG:  Solving for p, Initial residual = 0.00018273676, Final residual = 1.7524212e-06, No Iterations 47
DICPCG:  Solving for p, Initial residual = 2.8667427e-05, Final residual = 8.7377266e-07, No Iterations 8
time step continuity errors : sum local = 3.317743e-10, global = 2.1109463e-11, cumulative = 9.2129271e-08
ExecutionTime = 0.61 s  ClockTime = 13 s

Time = 2.3

Courant Number mean: 0.096464749 max: 0.45603692
smoothSolver:  Solving for Ux, Initial residual = 0.0015754285, Final residual = 2.5107947e-10, No Iterations 3
smoothSolver:  Solving for Uy, Initial residual = 0.00092749624, Final residual = 2.362259e-10, No Iterations 3
DICPCG:  Solving for p, Initial residual = 0.016283622, Final residual = 0.00015615451, No Iterations 22
DICPCG:  Solving for p, Initial residual = 0.0018758229, Final residual = 1.4294761e-05, No Iterations 57
DICPCG:  Solving for p, Initial residual = 0.00030586601, Final residual = 3.03316e-06, No Iterations 16
time step continuity errors : sum local = 1.1419504e-09, global = -1.2470157e-10, cumulative = 9.2004569e-08
DICPCG:  Solving for p, Initial residual = 0.00066121915, Final residual = 6.3990695e-06, No Iterations 34
DICPCG:  Solving for p, Initial residual = 0.00017799354, Final residual = 1.4329103e-06, No Iterations 44
DICPCG:  Solving for p, Initial residual = 2.8662584e-05, Final residual = 8.1220603e-07, No Iterations 14
time step continuity errors : sum local = 3.0588477e-10, global = -2.5110046e-11, cumulative = 9.1979459e-08
ExecutionTime = 0.62 s  ClockTime = 13 s

Time = 2.35

Courant Number mean: 0.096481948 max: 0.45795553
smoothSolver:  Solving for Ux, Initial residual = 0.0015458325, Final residual = 2.3791984e-10, No Iterations 3
smoothSolver:  Solving for Uy, Initial residual = 0.00091382716, Final residual = 2.2595304e-10, No Iterations 3
DICPCG:  Solving for p, Initial residual = 0.015481577, Final residual = 0.00014541838, No Iterations 21
DICPCG:  Solving for p, Initial residual = 0.0018259744, Final residual = 1.6947161e-05, No Iterations 48
DICPCG:  Solving for p, Initial residual = 0.00027081755, Final residual = 2.5766957e-06, No Iterations 19
time step continuity errors : sum local = 9.6197921e-10, global = 3.6246695e-11, cumulative = 9.2015706e-08
DICPCG:  Solving for p, Initial residual = 0.00064344305, Final residual = 5.8229794e-06, No Iterations 33
DICPCG:  Solving for p, Initial residual = 0.00018035183, Final residual = 1.5936172e-06, No Iterations 19
DICPCG:  Solving for p, Initial residual = 2.4783437e-05, Final residual = 8.8360957e-07, No Iterations 13
time step continuity errors : sum local = 3.299216e-10, global = -5.5155412e-13, cumulative = 9.2015154e-08
ExecutionTime = 0.62 s  ClockTime = 13 s

Time = 2.4

Courant Number mean: 0.096499634 max: 0.45983206
smoothSolver:  Solving for Ux, Initial residual = 0.0015159176, Final residual = 2.2781259e-10, No Iterations 3
smoothSolver:  Solving for Uy, Initial residual = 0.00090197182, Final residual = 2.1612842e-10, No Iterations 3
DICPCG:  Solving for p, Initial residual = 0.015906782, Final residual = 0.00015704709, No Iterations 18
DICPCG:  Solving for p, Initial residual = 0.0019584443, Final residual = 1.794728e-05, No Iterations 27
DICPCG:  Solving for p, Initial residual = 0.00026621807, Final residual = 2.609618e-06, No Iterations 52
time step continuity errors : sum local = 9.6557879e-10, global = 1.2792041e-11, cumulative = 9.2027946e-08
DICPCG:  Solving for p, Initial residual = 0.00069157977, Final residual = 5.8376185e-06, No Iterations 28
DICPCG:  Solving for p, Initial residual = 0.00019334708, Final residual = 1.885567e-06, No Iterations 17
DICPCG:  Solving for p, Initial residual = 2.7945392e-05, Final residual = 8.2800387e-07, No Iterations 46
time step continuity errors : sum local = 3.0633053e-10, global = -1.3695306e-11, cumulative = 9.2014251e-08
ExecutionTime = 0.63 s  ClockTime = 13 s

Time = 2.45

Courant Number mean: 0.096517308 max: 0.46168127
smoothSolver:  Solving for Ux, Initial residual = 0.0014894883, Final residual = 2.2002667e-10, No Iterations 3
smoothSolver:  Solving for Uy, Initial residual = 0.0008919763, Final residual = 2.0648995e-10, No Iterations 3
DICPCG:  Solving for p, Initial residual = 0.015063583, Final residual = 0.00012534597, No Iterations 21
DICPCG:  Solving for p, Initial residual = 0.0017898078, Final residual = 1.696043e-05, No Iterations 27
DICPCG:  Solving for p, Initial residual = 0.0002437829, Final residual = 2.0790709e-06, No Iterations 49
time step continuity errors : sum local = 7.6346945e-10, global = 2.2738104e-11, cumulative = 9.2036989e-08
DICPCG:  Solving for p, Initial residual = 0.00064688602, Final residual = 5.9788125e-06, No Iterations 28
DICPCG:  Solving for p, Initial residual = 0.00018054693, Final residual = 1.5734385e-06, No Iterations 18
DICPCG:  Solving for p, Initial residual = 2.6584414e-05, Final residual = 9.7843761e-07, No Iterations 14
time step continuity errors : sum local = 3.592373e-10, global = 7.5176185e-11, cumulative = 9.2112165e-08
ExecutionTime = 0.64 s  ClockTime = 13 s

Time = 2.5

Courant Number mean: 0.096534512 max: 0.46350215
smoothSolver:  Solving for Ux, Initial residual = 0.0014674367, Final residual = 2.1765664e-10, No Iterations 3
smoothSolver:  Solving for Uy, Initial residual = 0.00088271862, Final residual = 1.967039e-10, No Iterations 3
DICPCG:  Solving for p, Initial residual = 0.01378833, Final residual = 0.00013145775, No Iterations 22
DICPCG:  Solving for p, Initial residual = 0.0016908449, Final residual = 1.5836043e-05, No Iterations 29
DICPCG:  Solving for p, Initial residual = 0.00024895506, Final residual = 1.6988515e-06, No Iterations 59
time step continuity errors : sum local = 6.2012629e-10, global = 6.3357342e-12, cumulative = 9.2118501e-08
DICPCG:  Solving for p, Initial residual = 0.00060827495, Final residual = 5.4644559e-06, No Iterations 33
DICPCG:  Solving for p, Initial residual = 0.00016626895, Final residual = 1.4946691e-06, No Iterations 19
DICPCG:  Solving for p, Initial residual = 2.370176e-05, Final residual = 7.4236158e-07, No Iterations 14
time step continuity errors : sum local = 2.7089015e-10, global = -4.5935281e-11, cumulative = 9.2072566e-08
ExecutionTime = 0.65 s  ClockTime = 13 s

Time = 2.55

Courant Number mean: 0.096551248 max: 0.46529069
smoothSolver:  Solving for Ux, Initial residual = 0.0014473499, Final residual = 2.1637454e-10, No Iterations 3
smoothSolver:  Solving for Uy, Initial residual = 0.00087386341, Final residual = 1.8669643e-10, No Iterations 3
DICPCG:  Solving for p, Initial residual = 0.013345095, Final residual = 0.0001283299, No Iterations 22
DICPCG:  Solving for p, Initial residual = 0.0016624626, Final residual = 1.3087217e-05, No Iterations 29
DICPCG:  Solving for p, Initial residual = 0.00024154973, Final residual = 1.590718e-06, No Iterations 59
time step continuity errors : sum local = 5.7755748e-10, global = 2.3443294e-12, cumulative = 9.207491e-08
DICPCG:  Solving for p, Initial residual = 0.00058918347, Final residual = 5.7255369e-06, No Iterations 29
DICPCG:  Solving for p, Initial residual = 0.00016106526, Final residual = 1.6068945e-06, No Iterations 25
DICPCG:  Solving for p, Initial residual = 2.4515408e-05, Final residual = 6.5252649e-07, No Iterations 14
time step continuity errors : sum local = 2.368642e-10, global = -1.5742643e-11, cumulative = 9.2059168e-08
ExecutionTime = 0.65 s  ClockTime = 13 s

Time = 2.6

Courant Number mean: 0.096567526 max: 0.46704965
smoothSolver:  Solving for Ux, Initial residual = 0.0014278611, Final residual = 2.146071e-10, No Iterations 3
smoothSolver:  Solving for Uy, Initial residual = 0.00086527838, Final residual = 1.7736927e-10, No Iterations 3
DICPCG:  Solving for p, Initial residual = 0.013155555, Final residual = 0.00012982317, No Iterations 21
DICPCG:  Solving for p, Initial residual = 0.0016428457, Final residual = 1.5004382e-05, No Iterations 29
DICPCG:  Solving for p, Initial residual = 0.00024422339, Final residual = 1.7018125e-06, No Iterations 59
time step continuity errors : sum local = 6.1487862e-10, global = 4.4692834e-12, cumulative = 9.2063637e-08
DICPCG:  Solving for p, Initial residual = 0.00058969313, Final residual = 5.2792419e-06, No Iterations 29
DICPCG:  Solving for p, Initial residual = 0.00016182674, Final residual = 1.590626e-06, No Iterations 25
DICPCG:  Solving for p, Initial residual = 2.4693077e-05, Final residual = 9.8694836e-07, No Iterations 8
time step continuity errors : sum local = 3.5650714e-10, global = -3.4080394e-11, cumulative = 9.2029556e-08
ExecutionTime = 0.66 s  ClockTime = 13 s

Time = 2.65

Courant Number mean: 0.096583567 max: 0.46878176
smoothSolver:  Solving for Ux, Initial residual = 0.0014100001, Final residual = 2.1209834e-10, No Iterations 3
smoothSolver:  Solving for Uy, Initial residual = 0.0008561739, Final residual = 1.6858165e-10, No Iterations 3
DICPCG:  Solving for p, Initial residual = 0.013178017, Final residual = 0.00012607966, No Iterations 21
DICPCG:  Solving for p, Initial residual = 0.0016263416, Final residual = 1.3788595e-05, No Iterations 29
DICPCG:  Solving for p, Initial residual = 0.00024424452, Final residual = 1.710537e-06, No Iterations 59
time step continuity errors : sum local = 6.1520433e-10, global = 4.0014268e-12, cumulative = 9.2033558e-08
DICPCG:  Solving for p, Initial residual = 0.00059358178, Final residual = 5.6351914e-06, No Iterations 28
DICPCG:  Solving for p, Initial residual = 0.00016183184, Final residual = 1.3150226e-06, No Iterations 26
DICPCG:  Solving for p, Initial residual = 2.5223047e-05, Final residual = 9.971814e-07, No Iterations 7
time step continuity errors : sum local = 3.5858544e-10, global = -1.04064e-11, cumulative = 9.2023151e-08
ExecutionTime = 0.67 s  ClockTime = 13 s

Time = 2.7

Courant Number mean: 0.096599586 max: 0.47048959
smoothSolver:  Solving for Ux, Initial residual = 0.0013915842, Final residual = 2.088884e-10, No Iterations 3
smoothSolver:  Solving for Uy, Initial residual = 0.00084889629, Final residual = 1.5992324e-10, No Iterations 3
DICPCG:  Solving for p, Initial residual = 0.01295793, Final residual = 0.00012482972, No Iterations 21
DICPCG:  Solving for p, Initial residual = 0.0016021026, Final residual = 1.4341126e-05, No Iterations 29
DICPCG:  Solving for p, Initial residual = 0.00024195137, Final residual = 1.6828586e-06, No Iterations 59
time step continuity errors : sum local = 6.0326767e-10, global = 4.2905975e-12, cumulative = 9.2027442e-08
DICPCG:  Solving for p, Initial residual = 0.00059510398, Final residual = 5.3357781e-06, No Iterations 28
DICPCG:  Solving for p, Initial residual = 0.00016079809, Final residual = 1.2695564e-06, No Iterations 26
DICPCG:  Solving for p, Initial residual = 2.5141941e-05, Final residual = 9.6053661e-07, No Iterations 7
time step continuity errors : sum local = 3.4427173e-10, global = -1.0057352e-11, cumulative = 9.2017385e-08
ExecutionTime = 0.67 s  ClockTime = 13 s

Time = 2.75

Courant Number mean: 0.096615117 max: 0.47217345
smoothSolver:  Solving for Ux, Initial residual = 0.0013730506, Final residual = 2.0515581e-10, No Iterations 3
smoothSolver:  Solving for Uy, Initial residual = 0.00084132563, Final residual = 1.5175097e-10, No Iterations 3
DICPCG:  Solving for p, Initial residual = 0.01240307, Final residual = 0.00012132327, No Iterations 21
DICPCG:  Solving for p, Initial residual = 0.0015830816, Final residual = 1.3650494e-05, No Iterations 29
DICPCG:  Solving for p, Initial residual = 0.00023635667, Final residual = 1.6694458e-06, No Iterations 59
time step continuity errors : sum local = 5.967939e-10, global = 4.4431722e-12, cumulative = 9.2021828e-08
DICPCG:  Solving for p, Initial residual = 0.00058815186, Final residual = 4.9231067e-06, No Iterations 28
DICPCG:  Solving for p, Initial residual = 0.00015976058, Final residual = 1.5672896e-06, No Iterations 25
DICPCG:  Solving for p, Initial residual = 2.4906472e-05, Final residual = 9.3613715e-07, No Iterations 7
time step continuity errors : sum local = 3.3459629e-10, global = 6.703043e-12, cumulative = 9.2028531e-08
ExecutionTime = 0.68 s  ClockTime = 13 s

Time = 2.8

Courant Number mean: 0.096630575 max: 0.47383232
smoothSolver:  Solving for Ux, Initial residual = 0.0013556238, Final residual = 2.0181159e-10, No Iterations 3
smoothSolver:  Solving for Uy, Initial residual = 0.00083302286, Final residual = 1.4609596e-10, No Iterations 3
DICPCG:  Solving for p, Initial residual = 0.012130049, Final residual = 0.00011687464, No Iterations 21
DICPCG:  Solving for p, Initial residual = 0.0015514894, Final residual = 1.3986372e-05, No Iterations 29
DICPCG:  Solving for p, Initial residual = 0.0002336541, Final residual = 1.623478e-06, No Iterations 59
time step continuity errors : sum local = 5.7881083e-10, global = 5.9087097e-12, cumulative = 9.203444e-08
DICPCG:  Solving for p, Initial residual = 0.00058359025, Final residual = 4.6178767e-06, No Iterations 28
DICPCG:  Solving for p, Initial residual = 0.00016010173, Final residual = 1.4940121e-06, No Iterations 18
DICPCG:  Solving for p, Initial residual = 2.4564259e-05, Final residual = 8.2592654e-07, No Iterations 14
time step continuity errors : sum local = 2.9442374e-10, global = 2.1146148e-11, cumulative = 9.2055586e-08
ExecutionTime = 0.68 s  ClockTime = 13 s

Time = 2.85

Courant Number mean: 0.096645554 max: 0.47546512
smoothSolver:  Solving for Ux, Initial residual = 0.001340658, Final residual = 2.0281667e-10, No Iterations 3
smoothSolver:  Solving for Uy, Initial residual = 0.00082596853, Final residual = 1.4060907e-10, No Iterations 3
DICPCG:  Solving for p, Initial residual = 0.011952949, Final residual = 0.00011365255, No Iterations 21
DICPCG:  Solving for p, Initial residual = 0.0015384872, Final residual = 1.3835428e-05, No Iterations 29
DICPCG:  Solving for p, Initial residual = 0.00023053825, Final residual = 1.5650685e-06, No Iterations 59
time step continuity errors : sum local = 5.5650865e-10, global = 6.02466e-12, cumulative = 9.206161e-08
DICPCG:  Solving for p, Initial residual = 0.00059043018, Final residual = 5.835009e-06, No Iterations 27
DICPCG:  Solving for p, Initial residual = 0.00015875121, Final residual = 1.561488e-06, No Iterations 19
DICPCG:  Solving for p, Initial residual = 2.4790633e-05, Final residual = 7.8132615e-07, No Iterations 14
time step continuity errors : sum local = 2.7779032e-10, global = 2.311157e-11, cumulative = 9.2084722e-08
ExecutionTime = 0.7 s  ClockTime = 13 s

Time = 2.9

Courant Number mean: 0.096660059 max: 0.47706947
smoothSolver:  Solving for Ux, Initial residual = 0.0013248054, Final residual = 2.04342e-10, No Iterations 3
smoothSolver:  Solving for Uy, Initial residual = 0.00081918765, Final residual = 1.3544053e-10, No Iterations 3
DICPCG:  Solving for p, Initial residual = 0.011683738, Final residual = 0.00011089587, No Iterations 21
DICPCG:  Solving for p, Initial residual = 0.0015246591, Final residual = 1.4147553e-05, No Iterations 29
DICPCG:  Solving for p, Initial residual = 0.00022700799, Final residual = 1.5046357e-06, No Iterations 59
time step continuity errors : sum local = 5.3369394e-10, global = 5.7362024e-12, cumulative = 9.2090458e-08
DICPCG:  Solving for p, Initial residual = 0.00058930957, Final residual = 5.7168187e-06, No Iterations 27
DICPCG:  Solving for p, Initial residual = 0.00015788219, Final residual = 1.5126581e-06, No Iterations 19
DICPCG:  Solving for p, Initial residual = 2.4348508e-05, Final residual = 7.5321847e-07, No Iterations 14
time step continuity errors : sum local = 2.671283e-10, global = 2.0131856e-11, cumulative = 9.211059e-08
ExecutionTime = 0.7 s  ClockTime = 13 s

Time = 2.95

Courant Number mean: 0.096674144 max: 0.47864283
smoothSolver:  Solving for Ux, Initial residual = 0.0013105278, Final residual = 2.0557822e-10, No Iterations 3
smoothSolver:  Solving for Uy, Initial residual = 0.00081305062, Final residual = 1.3050502e-10, No Iterations 3
DICPCG:  Solving for p, Initial residual = 0.011501678, Final residual = 0.00010803714, No Iterations 21
DICPCG:  Solving for p, Initial residual = 0.001523239, Final residual = 1.5031964e-05, No Iterations 29
DICPCG:  Solving for p, Initial residual = 0.00022633349, Final residual = 1.4770812e-06, No Iterations 59
time step continuity errors : sum local = 5.2260091e-10, global = 6.7463459e-12, cumulative = 9.2117336e-08
DICPCG:  Solving for p, Initial residual = 0.00059479687, Final residual = 5.7102112e-06, No Iterations 27
DICPCG:  Solving for p, Initial residual = 0.00015943793, Final residual = 1.5313524e-06, No Iterations 18
DICPCG:  Solving for p, Initial residual = 2.410309e-05, Final residual = 8.0139635e-07, No Iterations 14
time step continuity errors : sum local = 2.8349149e-10, global = 1.9614658e-11, cumulative = 9.2136951e-08
ExecutionTime = 0.71 s  ClockTime = 13 s

Time = 3

Courant Number mean: 0.096687886 max: 0.4801832
smoothSolver:  Solving for Ux, Initial residual = 0.0012978997, Final residual = 2.0642608e-10, No Iterations 3
smoothSolver:  Solving for Uy, Initial residual = 0.00080802719, Final residual = 1.2574388e-10, No Iterations 3
DICPCG:  Solving for p, Initial residual = 0.011445225, Final residual = 0.0001120822, No Iterations 20
DICPCG:  Solving for p, Initial residual = 0.0015205586, Final residual = 1.4754027e-05, No Iterations 31
DICPCG:  Solving for p, Initial residual = 0.00022891677, Final residual = 2.0201984e-06, No Iterations 53
time step continuity errors : sum local = 7.126403e-10, global = 1.5369198e-11, cumulative = 9.215232e-08
DICPCG:  Solving for p, Initial residual = 0.00060088051, Final residual = 5.7237496e-06, No Iterations 27
DICPCG:  Solving for p, Initial residual = 0.00016124731, Final residual = 1.5745501e-06, No Iterations 16
DICPCG:  Solving for p, Initial residual = 2.4176588e-05, Final residual = 9.227084e-07, No Iterations 14
time step continuity errors : sum local = 3.2542495e-10, global = 1.3632143e-11, cumulative = 9.2165952e-08
ExecutionTime = 0.72 s  ClockTime = 13 s

Time = 3.05

Courant Number mean: 0.096701189 max: 0.48168822
smoothSolver:  Solving for Ux, Initial residual = 0.0012857831, Final residual = 2.0691086e-10, No Iterations 3
smoothSolver:  Solving for Uy, Initial residual = 0.0008028232, Final residual = 1.2093777e-10, No Iterations 3
DICPCG:  Solving for p, Initial residual = 0.011161568, Final residual = 0.00010867283, No Iterations 20
DICPCG:  Solving for p, Initial residual = 0.0015093853, Final residual = 1.4955753e-05, No Iterations 31
DICPCG:  Solving for p, Initial residual = 0.00022537505, Final residual = 1.8422913e-06, No Iterations 53
time step continuity errors : sum local = 6.4827746e-10, global = 2.2433137e-11, cumulative = 9.2188386e-08
DICPCG:  Solving for p, Initial residual = 0.00059043633, Final residual = 5.6253192e-06, No Iterations 27
DICPCG:  Solving for p, Initial residual = 0.00016266585, Final residual = 1.5465076e-06, No Iterations 16
DICPCG:  Solving for p, Initial residual = 2.3916523e-05, Final residual = 9.0773721e-07, No Iterations 14
time step continuity errors : sum local = 3.1936563e-10, global = 1.731889e-11, cumulative = 9.2205704e-08
ExecutionTime = 0.72 s  ClockTime = 13 s

Time = 3.1

Courant Number mean: 0.096714044 max: 0.48341337
smoothSolver:  Solving for Ux, Initial residual = 0.0012739944, Final residual = 2.0979063e-10, No Iterations 3
smoothSolver:  Solving for Uy, Initial residual = 0.0007976359, Final residual = 1.1619119e-10, No Iterations 3
DICPCG:  Solving for p, Initial residual = 0.011078037, Final residual = 0.00010442093, No Iterations 20
DICPCG:  Solving for p, Initial residual = 0.0015321933, Final residual = 1.5000973e-05, No Iterations 30
DICPCG:  Solving for p, Initial residual = 0.00022506664, Final residual = 2.0435692e-06, No Iterations 53
time step continuity errors : sum local = 7.1787204e-10, global = 4.0644387e-11, cumulative = 9.2246349e-08
DICPCG:  Solving for p, Initial residual = 0.00059043859, Final residual = 5.536712e-06, No Iterations 27
DICPCG:  Solving for p, Initial residual = 0.00016559676, Final residual = 1.5029076e-06, No Iterations 16
DICPCG:  Solving for p, Initial residual = 2.3832643e-05, Final residual = 9.6054645e-07, No Iterations 10
time step continuity errors : sum local = 3.3736048e-10, global = 5.0363603e-11, cumulative = 9.2296712e-08
ExecutionTime = 0.73 s  ClockTime = 13 s

Time = 3.15

Courant Number mean: 0.096726515 max: 0.48584286
smoothSolver:  Solving for Ux, Initial residual = 0.0012629908, Final residual = 2.1519036e-10, No Iterations 3
smoothSolver:  Solving for Uy, Initial residual = 0.00079209919, Final residual = 1.1166287e-10, No Iterations 3
DICPCG:  Solving for p, Initial residual = 0.010889311, Final residual = 0.00010141247, No Iterations 20
DICPCG:  Solving for p, Initial residual = 0.0015131197, Final residual = 1.3353829e-05, No Iterations 32
DICPCG:  Solving for p, Initial residual = 0.00021897606, Final residual = 2.0752244e-06, No Iterations 51
time step continuity errors : sum local = 7.2808761e-10, global = 3.3231712e-11, cumulative = 9.2329944e-08
DICPCG:  Solving for p, Initial residual = 0.00058671276, Final residual = 5.4365799e-06, No Iterations 27
DICPCG:  Solving for p, Initial residual = 0.0001659014, Final residual = 1.5549752e-06, No Iterations 16
DICPCG:  Solving for p, Initial residual = 2.3561111e-05, Final residual = 9.4561958e-07, No Iterations 10
time step continuity errors : sum local = 3.3169751e-10, global = 3.4772372e-11, cumulative = 9.2364717e-08
ExecutionTime = 0.73 s  ClockTime = 13 s

Time = 3.2

Courant Number mean: 0.096738626 max: 0.48823536
smoothSolver:  Solving for Ux, Initial residual = 0.0012511108, Final residual = 2.2069479e-10, No Iterations 3
smoothSolver:  Solving for Uy, Initial residual = 0.00078641771, Final residual = 1.0724995e-10, No Iterations 3
DICPCG:  Solving for p, Initial residual = 0.010767398, Final residual = 0.00010101472, No Iterations 20
DICPCG:  Solving for p, Initial residual = 0.0015149154, Final residual = 1.3642807e-05, No Iterations 32
DICPCG:  Solving for p, Initial residual = 0.0002189855, Final residual = 2.1131132e-06, No Iterations 50
time step continuity errors : sum local = 7.4051769e-10, global = 5.1024004e-11, cumulative = 9.2415741e-08
DICPCG:  Solving for p, Initial residual = 0.00058628251, Final residual = 5.352665e-06, No Iterations 27
DICPCG:  Solving for p, Initial residual = 0.00016717083, Final residual = 1.5281866e-06, No Iterations 16
DICPCG:  Solving for p, Initial residual = 2.3385997e-05, Final residual = 9.3762067e-07, No Iterations 10
[...]
smoothSolver:  Solving for Uy, Initial residual = 6.5889027e-05, Final residual = 3.0320684e-10, No Iterations 2
DICPCG:  Solving for p, Initial residual = 0.00022065608, Final residual = 2.0071288e-06, No Iterations 19
DICPCG:  Solving for p, Initial residual = 3.4910031e-05, Final residual = 8.7606591e-07, No Iterations 45
DICPCG:  Solving for p, Initial residual = 5.4432741e-06, Final residual = 9.9368427e-07, No Iterations 1
time step continuity errors : sum local = 3.6360505e-10, global = -1.7648182e-11, cumulative = 9.8458936e-08
DICPCG:  Solving for p, Initial residual = 7.5880101e-06, Final residual = 9.2526932e-07, No Iterations 8
DICPCG:  Solving for p, Initial residual = 3.1297825e-06, Final residual = 6.7755325e-07, No Iterations 1
DICPCG:  Solving for p, Initial residual = 7.8835566e-07, Final residual = 7.8835566e-07, No Iterations 0
time step continuity errors : sum local = 2.8847182e-10, global = -2.2911123e-12, cumulative = 9.8456645e-08
ExecutionTime = 5.87 s  ClockTime = 19 s

Time = 49.25

Courant Number mean: 0.097056968 max: 0.51741793
smoothSolver:  Solving for Ux, Initial residual = 9.2789156e-05, Final residual = 3.2803682e-10, No Iterations 2
smoothSolver:  Solving for Uy, Initial residual = 6.5778902e-05, Final residual = 3.0230774e-10, No Iterations 2
DICPCG:  Solving for p, Initial residual = 0.00022189136, Final residual = 1.9011438e-06, No Iterations 18
DICPCG:  Solving for p, Initial residual = 3.486691e-05, Final residual = 9.1670541e-07, No Iterations 11
DICPCG:  Solving for p, Initial residual = 4.0437746e-06, Final residual = 8.2642996e-07, No Iterations 1
time step continuity errors : sum local = 3.0243515e-10, global = 6.5041351e-11, cumulative = 9.8521687e-08
DICPCG:  Solving for p, Initial residual = 7.5066811e-06, Final residual = 9.9832509e-07, No Iterations 6
DICPCG:  Solving for p, Initial residual = 2.9280694e-06, Final residual = 7.2622445e-07, No Iterations 1
DICPCG:  Solving for p, Initial residual = 8.1554505e-07, Final residual = 8.1554505e-07, No Iterations 0
time step continuity errors : sum local = 2.9845152e-10, global = 6.3963844e-11, cumulative = 9.8585651e-08
ExecutionTime = 5.88 s  ClockTime = 19 s

Time = 49.3

Courant Number mean: 0.097056243 max: 0.5174089
smoothSolver:  Solving for Ux, Initial residual = 9.2619374e-05, Final residual = 3.2726804e-10, No Iterations 2
smoothSolver:  Solving for Uy, Initial residual = 6.5669366e-05, Final residual = 3.0202552e-10, No Iterations 2
DICPCG:  Solving for p, Initial residual = 0.00022390881, Final residual = 2.2133837e-06, No Iterations 18
DICPCG:  Solving for p, Initial residual = 3.5030282e-05, Final residual = 9.6117038e-07, No Iterations 43
DICPCG:  Solving for p, Initial residual = 5.4937782e-06, Final residual = 9.7696829e-07, No Iterations 1
time step continuity errors : sum local = 3.5755073e-10, global = -1.8880783e-11, cumulative = 9.856677e-08
DICPCG:  Solving for p, Initial residual = 7.5366086e-06, Final residual = 8.8727267e-07, No Iterations 8
DICPCG:  Solving for p, Initial residual = 3.0246534e-06, Final residual = 6.6843659e-07, No Iterations 1
DICPCG:  Solving for p, Initial residual = 7.7444226e-07, Final residual = 7.7444226e-07, No Iterations 0
time step continuity errors : sum local = 2.8343026e-10, global = -2.953791e-11, cumulative = 9.8537232e-08
ExecutionTime = 5.88 s  ClockTime = 19 s

Time = 49.35

Courant Number mean: 0.097055512 max: 0.51739989
smoothSolver:  Solving for Ux, Initial residual = 9.2447931e-05, Final residual = 3.2635007e-10, No Iterations 2
smoothSolver:  Solving for Uy, Initial residual = 6.5557205e-05, Final residual = 3.0171127e-10, No Iterations 2
DICPCG:  Solving for p, Initial residual = 0.00022653265, Final residual = 1.9870864e-06, No Iterations 18
DICPCG:  Solving for p, Initial residual = 3.4893153e-05, Final residual = 9.0109989e-07, No Iterations 35
DICPCG:  Solving for p, Initial residual = 5.3017801e-06, Final residual = 9.4726204e-07, No Iterations 1
time step continuity errors : sum local = 3.4673165e-10, global = 3.2526788e-12, cumulative = 9.8540484e-08
DICPCG:  Solving for p, Initial residual = 7.5059925e-06, Final residual = 8.6610138e-07, No Iterations 10
DICPCG:  Solving for p, Initial residual = 2.9010392e-06, Final residual = 5.8609091e-07, No Iterations 1
DICPCG:  Solving for p, Initial residual = 6.8911878e-07, Final residual = 6.8911878e-07, No Iterations 0
time step continuity errors : sum local = 2.5224186e-10, global = 1.1038163e-11, cumulative = 9.8551523e-08
ExecutionTime = 5.89 s  ClockTime = 19 s

Time = 49.4

Courant Number mean: 0.097054786 max: 0.5173909
smoothSolver:  Solving for Ux, Initial residual = 9.2279836e-05, Final residual = 3.2531475e-10, No Iterations 2
smoothSolver:  Solving for Uy, Initial residual = 6.5446251e-05, Final residual = 3.0113448e-10, No Iterations 2
DICPCG:  Solving for p, Initial residual = 0.00023046075, Final residual = 1.8612253e-06, No Iterations 18
DICPCG:  Solving for p, Initial residual = 3.511923e-05, Final residual = 8.7658805e-07, No Iterations 10
DICPCG:  Solving for p, Initial residual = 3.9849681e-06, Final residual = 8.5038159e-07, No Iterations 1
time step continuity errors : sum local = 3.1130921e-10, global = 9.7769535e-12, cumulative = 9.85613e-08
DICPCG:  Solving for p, Initial residual = 7.403513e-06, Final residual = 8.7338938e-07, No Iterations 8
DICPCG:  Solving for p, Initial residual = 2.8769816e-06, Final residual = 6.5977269e-07, No Iterations 1
DICPCG:  Solving for p, Initial residual = 7.5466209e-07, Final residual = 7.5466209e-07, No Iterations 0
time step continuity errors : sum local = 2.7626787e-10, global = 1.3525978e-11, cumulative = 9.8574826e-08
ExecutionTime = 5.89 s  ClockTime = 19 s

Time = 49.45

Courant Number mean: 0.097054061 max: 0.51738195
smoothSolver:  Solving for Ux, Initial residual = 9.2110758e-05, Final residual = 3.2459912e-10, No Iterations 2
smoothSolver:  Solving for Uy, Initial residual = 6.5332427e-05, Final residual = 3.0031896e-10, No Iterations 2
DICPCG:  Solving for p, Initial residual = 0.00023624757, Final residual = 2.1429286e-06, No Iterations 18
DICPCG:  Solving for p, Initial residual = 3.5089015e-05, Final residual = 9.6074533e-07, No Iterations 11
DICPCG:  Solving for p, Initial residual = 4.194822e-06, Final residual = 8.810167e-07, No Iterations 1
time step continuity errors : sum local = 3.2256904e-10, global = 1.2418435e-11, cumulative = 9.8587244e-08
DICPCG:  Solving for p, Initial residual = 7.4494127e-06, Final residual = 8.9707551e-07, No Iterations 6
DICPCG:  Solving for p, Initial residual = 2.8493435e-06, Final residual = 6.6931052e-07, No Iterations 1
DICPCG:  Solving for p, Initial residual = 7.6510877e-07, Final residual = 7.6510877e-07, No Iterations 0
time step continuity errors : sum local = 2.8013116e-10, global = 1.0771614e-11, cumulative = 9.8598016e-08
ExecutionTime = 5.9 s  ClockTime = 19 s

Time = 49.5

Courant Number mean: 0.097053336 max: 0.51737303
smoothSolver:  Solving for Ux, Initial residual = 9.1941663e-05, Final residual = 3.23711e-10, No Iterations 2
smoothSolver:  Solving for Uy, Initial residual = 6.5220697e-05, Final residual = 2.999609e-10, No Iterations 2
DICPCG:  Solving for p, Initial residual = 0.00024787225, Final residual = 2.0282013e-06, No Iterations 18
DICPCG:  Solving for p, Initial residual = 3.591511e-05, Final residual = 8.4810691e-07, No Iterations 11
DICPCG:  Solving for p, Initial residual = 4.1891215e-06, Final residual = 8.4910932e-07, No Iterations 1
time step continuity errors : sum local = 3.1093767e-10, global = -1.647319e-11, cumulative = 9.8581542e-08
DICPCG:  Solving for p, Initial residual = 7.3356485e-06, Final residual = 9.1274907e-07, No Iterations 6
DICPCG:  Solving for p, Initial residual = 2.8472418e-06, Final residual = 6.9051424e-07, No Iterations 1
DICPCG:  Solving for p, Initial residual = 7.8252743e-07, Final residual = 7.8252743e-07, No Iterations 0
time step continuity errors : sum local = 2.8655566e-10, global = -1.7328777e-11, cumulative = 9.8564214e-08
ExecutionTime = 5.9 s  ClockTime = 19 s

Time = 49.55

Courant Number mean: 0.097052611 max: 0.51736413
smoothSolver:  Solving for Ux, Initial residual = 9.1767469e-05, Final residual = 3.2271119e-10, No Iterations 2
smoothSolver:  Solving for Uy, Initial residual = 6.5112763e-05, Final residual = 2.9938728e-10, No Iterations 2
DICPCG:  Solving for p, Initial residual = 0.00026823058, Final residual = 2.5787739e-06, No Iterations 16
DICPCG:  Solving for p, Initial residual = 3.7434286e-05, Final residual = 9.5434491e-07, No Iterations 14
DICPCG:  Solving for p, Initial residual = 4.6157238e-06, Final residual = 9.1226974e-07, No Iterations 1
time step continuity errors : sum local = 3.3413521e-10, global = -4.2471419e-11, cumulative = 9.8521742e-08
DICPCG:  Solving for p, Initial residual = 7.4546176e-06, Final residual = 9.4803495e-07, No Iterations 6
DICPCG:  Solving for p, Initial residual = 2.8725143e-06, Final residual = 7.0609543e-07, No Iterations 1
DICPCG:  Solving for p, Initial residual = 8.0201292e-07, Final residual = 8.0201292e-07, No Iterations 0
time step continuity errors : sum local = 2.9375149e-10, global = -5.6133691e-11, cumulative = 9.8465609e-08
ExecutionTime = 5.91 s  ClockTime = 19 s

Time = 49.6

Courant Number mean: 0.097051886 max: 0.51735525
smoothSolver:  Solving for Ux, Initial residual = 9.1591763e-05, Final residual = 3.2177846e-10, No Iterations 2
smoothSolver:  Solving for Uy, Initial residual = 6.501496e-05, Final residual = 2.9885397e-10, No Iterations 2
DICPCG:  Solving for p, Initial residual = 0.00030793139, Final residual = 2.767334e-06, No Iterations 15
DICPCG:  Solving for p, Initial residual = 3.983642e-05, Final residual = 9.7546639e-07, No Iterations 39
DICPCG:  Solving for p, Initial residual = 6.4032472e-06, Final residual = 7.4709651e-07, No Iterations 2
time step continuity errors : sum local = 2.7372681e-10, global = 5.6270662e-13, cumulative = 9.8466171e-08
DICPCG:  Solving for p, Initial residual = 7.5170866e-06, Final residual = 9.8894888e-07, No Iterations 8
DICPCG:  Solving for p, Initial residual = 3.0935904e-06, Final residual = 6.8659732e-07, No Iterations 1
DICPCG:  Solving for p, Initial residual = 7.9711696e-07, Final residual = 7.9711696e-07, No Iterations 0
time step continuity errors : sum local = 2.9205342e-10, global = 7.8639777e-12, cumulative = 9.8474035e-08
ExecutionTime = 5.91 s  ClockTime = 19 s

Time = 49.65

Courant Number mean: 0.097051168 max: 0.51734642
smoothSolver:  Solving for Ux, Initial residual = 9.141772e-05, Final residual = 3.2039576e-10, No Iterations 2
smoothSolver:  Solving for Uy, Initial residual = 6.493512e-05, Final residual = 2.9807598e-10, No Iterations 2
DICPCG:  Solving for p, Initial residual = 0.00025182025, Final residual = 2.4107839e-06, No Iterations 19
DICPCG:  Solving for p, Initial residual = 4.3599008e-05, Final residual = 8.6473607e-07, No Iterations 21
DICPCG:  Solving for p, Initial residual = 5.140141e-06, Final residual = 9.9070836e-07, No Iterations 1
time step continuity errors : sum local = 3.6298356e-10, global = 3.079498e-11, cumulative = 9.850483e-08
DICPCG:  Solving for p, Initial residual = 7.8578089e-06, Final residual = 9.995772e-07, No Iterations 9
DICPCG:  Solving for p, Initial residual = 3.1299208e-06, Final residual = 6.5699985e-07, No Iterations 1
DICPCG:  Solving for p, Initial residual = 7.6711653e-07, Final residual = 7.6711653e-07, No Iterations 0
time step continuity errors : sum local = 2.8106183e-10, global = 2.4297467e-11, cumulative = 9.8529128e-08
ExecutionTime = 5.92 s  ClockTime = 19 s

Time = 49.7

Courant Number mean: 0.097050449 max: 0.51733762
smoothSolver:  Solving for Ux, Initial residual = 9.1283097e-05, Final residual = 3.2001072e-10, No Iterations 2
smoothSolver:  Solving for Uy, Initial residual = 6.4849458e-05, Final residual = 2.9742542e-10, No Iterations 2
DICPCG:  Solving for p, Initial residual = 0.00037711212, Final residual = 2.9092017e-06, No Iterations 15
DICPCG:  Solving for p, Initial residual = 4.7571546e-05, Final residual = 9.7597963e-07, No Iterations 13
DICPCG:  Solving for p, Initial residual = 5.6544702e-06, Final residual = 7.6281205e-07, No Iterations 2
time step continuity errors : sum local = 2.7941239e-10, global = 5.4298643e-12, cumulative = 9.8534558e-08
DICPCG:  Solving for p, Initial residual = 7.7871673e-06, Final residual = 9.1994324e-07, No Iterations 6
DICPCG:  Solving for p, Initial residual = 2.9472837e-06, Final residual = 6.9544845e-07, No Iterations 1
DICPCG:  Solving for p, Initial residual = 7.8795027e-07, Final residual = 7.8795027e-07, No Iterations 0
time step continuity errors : sum local = 2.8862008e-10, global = 3.1471227e-12, cumulative = 9.8537705e-08
ExecutionTime = 5.92 s  ClockTime = 19 s

Time = 49.75

Courant Number mean: 0.097049939 max: 0.51732884
smoothSolver:  Solving for Ux, Initial residual = 9.1130203e-05, Final residual = 3.1923157e-10, No Iterations 2
smoothSolver:  Solving for Uy, Initial residual = 6.4644691e-05, Final residual = 2.9698425e-10, No Iterations 2
DICPCG:  Solving for p, Initial residual = 0.00032305115, Final residual = 3.1113104e-06, No Iterations 14
DICPCG:  Solving for p, Initial residual = 4.2408447e-05, Final residual = 9.4372647e-07, No Iterations 8
DICPCG:  Solving for p, Initial residual = 4.8796912e-06, Final residual = 7.9995923e-07, No Iterations 2
time step continuity errors : sum local = 2.9297534e-10, global = -3.5635735e-11, cumulative = 9.8502069e-08
DICPCG:  Solving for p, Initial residual = 7.6021092e-06, Final residual = 8.3782136e-07, No Iterations 10
DICPCG:  Solving for p, Initial residual = 2.9680834e-06, Final residual = 5.7913317e-07, No Iterations 1
DICPCG:  Solving for p, Initial residual = 6.7594545e-07, Final residual = 6.7594545e-07, No Iterations 0
time step continuity errors : sum local = 2.4755674e-10, global = -1.842526e-11, cumulative = 9.8483644e-08
ExecutionTime = 5.92 s  ClockTime = 19 s

Time = 49.8

Courant Number mean: 0.097049428 max: 0.51732009
smoothSolver:  Solving for Ux, Initial residual = 9.0964596e-05, Final residual = 3.1769078e-10, No Iterations 2
smoothSolver:  Solving for Uy, Initial residual = 6.4438591e-05, Final residual = 2.9620593e-10, No Iterations 2
DICPCG:  Solving for p, Initial residual = 0.00050159555, Final residual = 4.6121862e-06, No Iterations 18
DICPCG:  Solving for p, Initial residual = 6.513549e-05, Final residual = 8.9154135e-07, No Iterations 25
DICPCG:  Solving for p, Initial residual = 9.0791095e-06, Final residual = 6.9636175e-07, No Iterations 3
time step continuity errors : sum local = 2.5490009e-10, global = -7.5785615e-11, cumulative = 9.8407858e-08
DICPCG:  Solving for p, Initial residual = 8.8931943e-06, Final residual = 9.2978463e-07, No Iterations 42
DICPCG:  Solving for p, Initial residual = 4.6437898e-06, Final residual = 8.6045811e-07, No Iterations 1
DICPCG:  Solving for p, Initial residual = 1.0133704e-06, Final residual = 5.4531782e-07, No Iterations 1
time step continuity errors : sum local = 1.9961634e-10, global = 5.562358e-12, cumulative = 9.841342e-08
ExecutionTime = 5.93 s  ClockTime = 19 s

Time = 49.85

Courant Number mean: 0.097048929 max: 0.51731136
smoothSolver:  Solving for Ux, Initial residual = 9.0894468e-05, Final residual = 3.1764244e-10, No Iterations 2
smoothSolver:  Solving for Uy, Initial residual = 6.429056e-05, Final residual = 2.958419e-10, No Iterations 2
DICPCG:  Solving for p, Initial residual = 0.00024757812, Final residual = 2.2608221e-06, No Iterations 15
DICPCG:  Solving for p, Initial residual = 3.6253222e-05, Final residual = 9.1331256e-07, No Iterations 8
DICPCG:  Solving for p, Initial residual = 4.4607465e-06, Final residual = 9.2472828e-07, No Iterations 1
time step continuity errors : sum local = 3.3851882e-10, global = -2.3185819e-11, cumulative = 9.8390235e-08
DICPCG:  Solving for p, Initial residual = 7.6301193e-06, Final residual = 8.0673383e-07, No Iterations 10
DICPCG:  Solving for p, Initial residual = 2.8826977e-06, Final residual = 5.5426778e-07, No Iterations 1
DICPCG:  Solving for p, Initial residual = 6.6281235e-07, Final residual = 6.6281235e-07, No Iterations 0
time step continuity errors : sum local = 2.4263821e-10, global = -5.547621e-12, cumulative = 9.8384687e-08
ExecutionTime = 5.93 s  ClockTime = 19 s

Time = 49.9

Courant Number mean: 0.097048429 max: 0.51730268
smoothSolver:  Solving for Ux, Initial residual = 9.0701463e-05, Final residual = 3.1621831e-10, No Iterations 2
smoothSolver:  Solving for Uy, Initial residual = 6.4141107e-05, Final residual = 2.9512349e-10, No Iterations 2
DICPCG:  Solving for p, Initial residual = 0.00023945778, Final residual = 2.1553317e-06, No Iterations 17
DICPCG:  Solving for p, Initial residual = 3.6196055e-05, Final residual = 8.6602126e-07, No Iterations 10
DICPCG:  Solving for p, Initial residual = 4.2280531e-06, Final residual = 8.5156587e-07, No Iterations 1
time step continuity errors : sum local = 3.1174639e-10, global = -2.516643e-11, cumulative = 9.8359521e-08
DICPCG:  Solving for p, Initial residual = 7.705528e-06, Final residual = 9.5746396e-07, No Iterations 6
DICPCG:  Solving for p, Initial residual = 2.8135471e-06, Final residual = 7.3786452e-07, No Iterations 1
DICPCG:  Solving for p, Initial residual = 8.2427692e-07, Final residual = 8.2427692e-07, No Iterations 0
time step continuity errors : sum local = 3.0175595e-10, global = -1.4741654e-11, cumulative = 9.8344779e-08
ExecutionTime = 5.93 s  ClockTime = 19 s

Time = 49.95

Courant Number mean: 0.097047949 max: 0.51729401
smoothSolver:  Solving for Ux, Initial residual = 9.0572965e-05, Final residual = 3.154681e-10, No Iterations 2
smoothSolver:  Solving for Uy, Initial residual = 6.4014541e-05, Final residual = 2.9458159e-10, No Iterations 2
DICPCG:  Solving for p, Initial residual = 0.00024283053, Final residual = 2.345204e-06, No Iterations 16
DICPCG:  Solving for p, Initial residual = 3.6377753e-05, Final residual = 9.365977e-07, No Iterations 8
DICPCG:  Solving for p, Initial residual = 4.53296e-06, Final residual = 9.0420779e-07, No Iterations 1
time step continuity errors : sum local = 3.3102827e-10, global = -7.5157666e-12, cumulative = 9.8337263e-08
DICPCG:  Solving for p, Initial residual = 8.1479825e-06, Final residual = 8.9624549e-07, No Iterations 8
DICPCG:  Solving for p, Initial residual = 3.0061588e-06, Final residual = 6.6157566e-07, No Iterations 1
DICPCG:  Solving for p, Initial residual = 7.5955734e-07, Final residual = 7.5955734e-07, No Iterations 0
time step continuity errors : sum local = 2.7807183e-10, global = -2.5752026e-12, cumulative = 9.8334688e-08
ExecutionTime = 5.94 s  ClockTime = 19 s

Time = 50

Courant Number mean: 0.097047466 max: 0.51728539
smoothSolver:  Solving for Ux, Initial residual = 9.0470589e-05, Final residual = 3.1426599e-10, No Iterations 2
smoothSolver:  Solving for Uy, Initial residual = 6.3886313e-05, Final residual = 2.9378122e-10, No Iterations 2
DICPCG:  Solving for p, Initial residual = 0.00021976334, Final residual = 1.8606104e-06, No Iterations 18
DICPCG:  Solving for p, Initial residual = 3.4658895e-05, Final residual = 8.0455627e-07, No Iterations 10
DICPCG:  Solving for p, Initial residual = 3.9340839e-06, Final residual = 8.2879844e-07, No Iterations 1
time step continuity errors : sum local = 3.0344129e-10, global = 1.2204242e-11, cumulative = 9.8346892e-08
DICPCG:  Solving for p, Initial residual = 7.0914761e-06, Final residual = 9.74475e-07, No Iterations 6
DICPCG:  Solving for p, Initial residual = 2.7841552e-06, Final residual = 6.9733661e-07, No Iterations 1
DICPCG:  Solving for p, Initial residual = 7.8911452e-07, Final residual = 7.8911452e-07, No Iterations 0
time step continuity errors : sum local = 2.8891192e-10, global = 1.617192e-11, cumulative = 9.8363064e-08
ExecutionTime = 5.94 s  ClockTime = 19 s

End

