/*---------------------------------------------------------------------------*\
  =========                 |
  \\      /  F ield         | OpenFOAM: The Open Source CFD Toolbox
   \\    /   O peration     | Website:  https://openfoam.org
    \\  /    A nd           | Version:  9
     \\/     M anipulation  |
\*---------------------------------------------------------------------------*/
Build  : 9-c8374a4890ad
Exec   : rhoPimpleFoam
Date   : Dec 30 2021
Time   : 19:52:01
Host   : "endeavouros"
PID    : 969815
I/O    : uncollated
Case   : /home/ariedinger/uni/gimap/openfoam/03wiki3weeksSeries/day02/01gridConvergence/01shockTube_1000
nProcs : 1
sigFpe : Enabling floating point exception trapping (FOAM_SIGFPE).
fileModificationChecking : Monitoring run-time modified files using timeStampMaster (fileModificationSkew 10)
allowSystemOperations : Allowing user-supplied system call operations

// * * * * * * * * * * * * * * * * * * * * * * * * * * * * * * * * * * * * * //
Create time

Create mesh for time = 0


PIMPLE: No convergence criteria found


PIMPLE: No corrector convergence criteria found
        Calculations will do 2 corrections


PIMPLE: Operating solver in transient mode with 2 outer correctors


Reading thermophysical properties

Selecting thermodynamics package 
{
    type            hePsiThermo;
    mixture         pureMixture;
    transport       const;
    thermo          hConst;
    equationOfState perfectGas;
    specie          specie;
    energy          sensibleInternalEnergy;
}

Reading field U

Reading/calculating face flux field phi

Creating turbulence model

Selecting turbulence model type laminar
Selecting laminar stress model Stokes
Creating thermophysical transport model

Selecting thermophysical transport type laminar
Selecting default laminar thermophysical transport model unityLewisFourier
Creating field dpdt

Creating field kinetic energy K

No MRF models present

No fvModels present
No fvConstraints present
Courant Number mean: 0 max: 0

Starting time loop

Courant Number mean: 0 max: 0
Time = 1e-05

PIMPLE: Iteration 1
diagonal:  Solving for rho, Initial residual = 0, Final residual = 0, No Iterations 0
smoothSolver:  Solving for Ux, Initial residual = 1, Final residual = 0, No Iterations 1
smoothSolver:  Solving for e, Initial residual = 4.6153e-17, Final residual = 4.6153e-17, No Iterations 0
smoothSolver:  Solving for p, Initial residual = 0.000178178, Final residual = 6.67182e-17, No Iterations 6
diagonal:  Solving for rho, Initial residual = 0, Final residual = 0, No Iterations 0
time step continuity errors : sum local = 1.28481e-16, global = -8.60413e-17, cumulative = -8.60413e-17
PIMPLE: Iteration 2
smoothSolver:  Solving for Ux, Initial residual = 0.0374577, Final residual = 6.40109e-18, No Iterations 1
smoothSolver:  Solving for e, Initial residual = 0.000808468, Final residual = 1.33583e-17, No Iterations 3
smoothSolver:  Solving for p, Initial residual = 7.15344e-05, Final residual = 6.60876e-16, No Iterations 5
diagonal:  Solving for rho, Initial residual = 0, Final residual = 0, No Iterations 0
time step continuity errors : sum local = 1.20863e-15, global = -5.87623e-17, cumulative = -1.44804e-16
ExecutionTime = 0.03 s  ClockTime = 0 s

Courant Number mean: 0.000300548 max: 0.20892
Time = 2e-05

PIMPLE: Iteration 1
diagonal:  Solving for rho, Initial residual = 0, Final residual = 0, No Iterations 0
smoothSolver:  Solving for Ux, Initial residual = 0.128792, Final residual = 1.16369e-17, No Iterations 1
smoothSolver:  Solving for e, Initial residual = 0.000580762, Final residual = 1.39009e-17, No Iterations 3
smoothSolver:  Solving for p, Initial residual = 0.000390777, Final residual = 1.2475e-16, No Iterations 6
diagonal:  Solving for rho, Initial residual = 0, Final residual = 0, No Iterations 0
time step continuity errors : sum local = 2.60671e-16, global = -2.29015e-17, cumulative = -1.67705e-16
PIMPLE: Iteration 2
smoothSolver:  Solving for Ux, Initial residual = 0.0277224, Final residual = 4.0778e-18, No Iterations 1
smoothSolver:  Solving for e, Initial residual = 0.000621438, Final residual = 3.05268e-17, No Iterations 4
smoothSolver:  Solving for p, Initial residual = 5.51118e-05, Final residual = 3.70041e-16, No Iterations 5
diagonal:  Solving for rho, Initial residual = 0, Final residual = 0, No Iterations 0
time step continuity errors : sum local = 6.87836e-16, global = -2.90844e-17, cumulative = -1.96789e-16
ExecutionTime = 0.03 s  ClockTime = 0 s

Courant Number mean: 0.000617384 max: 0.29263
Time = 3e-05

PIMPLE: Iteration 1
diagonal:  Solving for rho, Initial residual = 0, Final residual = 0, No Iterations 0
smoothSolver:  Solving for Ux, Initial residual = 0.0710095, Final residual = 1.60118e-17, No Iterations 1
smoothSolver:  Solving for e, Initial residual = 0.000719499, Final residual = 9.81976e-17, No Iterations 4
smoothSolver:  Solving for p, Initial residual = 0.000397164, Final residual = 8.88973e-17, No Iterations 6
diagonal:  Solving for rho, Initial residual = 0, Final residual = 0, No Iterations 0
time step continuity errors : sum local = 1.87812e-16, global = -1.05901e-16, cumulative = -3.0269e-16
PIMPLE: Iteration 2
smoothSolver:  Solving for Ux, Initial residual = 0.0063355, Final residual = 7.36807e-18, No Iterations 1
smoothSolver:  Solving for e, Initial residual = 0.00031289, Final residual = 4.23643e-17, No Iterations 5
smoothSolver:  Solving for p, Initial residual = 5.62851e-05, Final residual = 2.36035e-16, No Iterations 5
diagonal:  Solving for rho, Initial residual = 0, Final residual = 0, No Iterations 0
time step continuity errors : sum local = 4.48953e-16, global = 3.76168e-17, cumulative = -2.65073e-16
ExecutionTime = 0.04 s  ClockTime = 0 s

Courant Number mean: 0.000787712 max: 0.27562
Time = 4e-05

PIMPLE: Iteration 1
diagonal:  Solving for rho, Initial residual = 0, Final residual = 0, No Iterations 0
smoothSolver:  Solving for Ux, Initial residual = 0.0500453, Final residual = 1.37464e-17, No Iterations 1
smoothSolver:  Solving for e, Initial residual = 0.00072612, Final residual = 2.6306e-16, No Iterations 4
smoothSolver:  Solving for p, Initial residual = 0.000358048, Final residual = 7.6287e-17, No Iterations 6
diagonal:  Solving for rho, Initial residual = 0, Final residual = 0, No Iterations 0
time step continuity errors : sum local = 1.66345e-16, global = -8.89349e-17, cumulative = -3.54008e-16
PIMPLE: Iteration 2
smoothSolver:  Solving for Ux, Initial residual = 0.00406864, Final residual = 1.11104e-17, No Iterations 1
smoothSolver:  Solving for e, Initial residual = 0.000396734, Final residual = 3.75782e-16, No Iterations 6
smoothSolver:  Solving for p, Initial residual = 4.37474e-05, Final residual = 1.95162e-16, No Iterations 5
diagonal:  Solving for rho, Initial residual = 0, Final residual = 0, No Iterations 0
time step continuity errors : sum local = 3.67363e-16, global = -6.82593e-17, cumulative = -4.22268e-16
ExecutionTime = 0.05 s  ClockTime = 0 s

Courant Number mean: 0.00098469 max: 0.266571
Time = 5e-05

PIMPLE: Iteration 1
diagonal:  Solving for rho, Initial residual = 0, Final residual = 0, No Iterations 0
smoothSolver:  Solving for Ux, Initial residual = 0.0385923, Final residual = 1.06383e-17, No Iterations 1
smoothSolver:  Solving for e, Initial residual = 0.000763718, Final residual = 5.75182e-17, No Iterations 6
smoothSolver:  Solving for p, Initial residual = 0.000347813, Final residual = 7.59937e-17, No Iterations 6
diagonal:  Solving for rho, Initial residual = 0, Final residual = 0, No Iterations 0
time step continuity errors : sum local = 1.5754e-16, global = -6.32635e-17, cumulative = -4.85531e-16
PIMPLE: Iteration 2
smoothSolver:  Solving for Ux, Initial residual = 0.00323876, Final residual = 1.63827e-17, No Iterations 1
smoothSolver:  Solving for e, Initial residual = 0.000377881, Final residual = 3.46747e-16, No Iterations 6
smoothSolver:  Solving for p, Initial residual = 4.17052e-05, Final residual = 2.11339e-16, No Iterations 5
diagonal:  Solving for rho, Initial residual = 0, Final residual = 0, No Iterations 0
time step continuity errors : sum local = 4.03274e-16, global = -3.15081e-17, cumulative = -5.17039e-16
ExecutionTime = 0.05 s  ClockTime = 0 s

Courant Number mean: 0.00119335 max: 0.275229
Time = 6e-05

PIMPLE: Iteration 1
diagonal:  Solving for rho, Initial residual = 0, Final residual = 0, No Iterations 0
smoothSolver:  Solving for Ux, Initial residual = 0.0324754, Final residual = 1.96847e-17, No Iterations 1
smoothSolver:  Solving for e, Initial residual = 0.000798211, Final residual = 2.02579e-16, No Iterations 6
smoothSolver:  Solving for p, Initial residual = 0.000333143, Final residual = 8.73994e-17, No Iterations 6
diagonal:  Solving for rho, Initial residual = 0, Final residual = 0, No Iterations 0
time step continuity errors : sum local = 1.77721e-16, global = -3.8977e-17, cumulative = -5.56016e-16
PIMPLE: Iteration 2
smoothSolver:  Solving for Ux, Initial residual = 0.00244665, Final residual = 1.52421e-17, No Iterations 1
smoothSolver:  Solving for e, Initial residual = 0.000345624, Final residual = 5.45286e-17, No Iterations 7
smoothSolver:  Solving for p, Initial residual = 3.8399e-05, Final residual = 3.1822e-16, No Iterations 5
diagonal:  Solving for rho, Initial residual = 0, Final residual = 0, No Iterations 0
time step continuity errors : sum local = 5.89354e-16, global = 1.97803e-16, cumulative = -3.58213e-16
ExecutionTime = 0.06 s  ClockTime = 0 s

Courant Number mean: 0.00140711 max: 0.287094
Time = 7e-05

PIMPLE: Iteration 1
diagonal:  Solving for rho, Initial residual = 0, Final residual = 0, No Iterations 0
smoothSolver:  Solving for Ux, Initial residual = 0.0281565, Final residual = 1.16011e-17, No Iterations 1
smoothSolver:  Solving for e, Initial residual = 0.000830263, Final residual = 5.15061e-17, No Iterations 7
smoothSolver:  Solving for p, Initial residual = 0.000318229, Final residual = 1.03949e-16, No Iterations 6
diagonal:  Solving for rho, Initial residual = 0, Final residual = 0, No Iterations 0
time step continuity errors : sum local = 2.15462e-16, global = -1.80046e-17, cumulative = -3.76217e-16
PIMPLE: Iteration 2
smoothSolver:  Solving for Ux, Initial residual = 0.00180493, Final residual = 8.0795e-18, No Iterations 1
smoothSolver:  Solving for e, Initial residual = 0.00028918, Final residual = 6.96542e-16, No Iterations 6
smoothSolver:  Solving for p, Initial residual = 3.43103e-05, Final residual = 5.35717e-16, No Iterations 5
diagonal:  Solving for rho, Initial residual = 0, Final residual = 0, No Iterations 0
time step continuity errors : sum local = 9.9159e-16, global = 5.5384e-16, cumulative = 1.77622e-16
ExecutionTime = 0.07 s  ClockTime = 0 s

Courant Number mean: 0.00162322 max: 0.291271
Time = 8e-05

PIMPLE: Iteration 1
diagonal:  Solving for rho, Initial residual = 0, Final residual = 0, No Iterations 0
smoothSolver:  Solving for Ux, Initial residual = 0.0245055, Final residual = 1.4454e-17, No Iterations 1
smoothSolver:  Solving for e, Initial residual = 0.000852612, Final residual = 9.26679e-16, No Iterations 6
smoothSolver:  Solving for p, Initial residual = 0.00030497, Final residual = 1.1886e-16, No Iterations 6
diagonal:  Solving for rho, Initial residual = 0, Final residual = 0, No Iterations 0
time step continuity errors : sum local = 2.44596e-16, global = 1.89939e-17, cumulative = 1.96616e-16
PIMPLE: Iteration 2
smoothSolver:  Solving for Ux, Initial residual = 0.00149605, Final residual = 1.33196e-17, No Iterations 1
smoothSolver:  Solving for e, Initial residual = 0.000265742, Final residual = 6.57645e-17, No Iterations 7
smoothSolver:  Solving for p, Initial residual = 3.22324e-05, Final residual = 8.07337e-16, No Iterations 5
diagonal:  Solving for rho, Initial residual = 0, Final residual = 0, No Iterations 0
time step continuity errors : sum local = 1.47544e-15, global = 1.06529e-15, cumulative = 1.26191e-15
ExecutionTime = 0.07 s  ClockTime = 0 s

Courant Number mean: 0.00184019 max: 0.291013
Time = 9e-05

PIMPLE: Iteration 1
diagonal:  Solving for rho, Initial residual = 0, Final residual = 0, No Iterations 0
smoothSolver:  Solving for Ux, Initial residual = 0.0221347, Final residual = 1.38543e-17, No Iterations 1
smoothSolver:  Solving for e, Initial residual = 0.000877747, Final residual = 8.62806e-17, No Iterations 7
smoothSolver:  Solving for p, Initial residual = 0.000295515, Final residual = 1.35913e-16, No Iterations 6
diagonal:  Solving for rho, Initial residual = 0, Final residual = 0, No Iterations 0
time step continuity errors : sum local = 2.84488e-16, global = 5.59677e-17, cumulative = 1.31787e-15
PIMPLE: Iteration 2
smoothSolver:  Solving for Ux, Initial residual = 0.00121591, Final residual = 1.31169e-17, No Iterations 1
smoothSolver:  Solving for e, Initial residual = 0.000232306, Final residual = 7.20611e-17, No Iterations 7
smoothSolver:  Solving for p, Initial residual = 2.84854e-05, Final residual = 4.89965e-17, No Iterations 6
diagonal:  Solving for rho, Initial residual = 0, Final residual = 0, No Iterations 0
time step continuity errors : sum local = 1.23287e-16, global = -5.04772e-17, cumulative = 1.2674e-15
ExecutionTime = 0.08 s  ClockTime = 0 s

Courant Number mean: 0.00205765 max: 0.29684
Time = 0.0001

PIMPLE: Iteration 1
diagonal:  Solving for rho, Initial residual = 0, Final residual = 0, No Iterations 0
smoothSolver:  Solving for Ux, Initial residual = 0.0198736, Final residual = 1.86594e-17, No Iterations 1
smoothSolver:  Solving for e, Initial residual = 0.000895421, Final residual = 1.09252e-16, No Iterations 7
smoothSolver:  Solving for p, Initial residual = 0.000292889, Final residual = 1.45801e-16, No Iterations 6
diagonal:  Solving for rho, Initial residual = 0, Final residual = 0, No Iterations 0
time step continuity errors : sum local = 3.00118e-16, global = 7.18948e-17, cumulative = 1.33929e-15
PIMPLE: Iteration 2
smoothSolver:  Solving for Ux, Initial residual = 0.00102862, Final residual = 1.15091e-17, No Iterations 1
smoothSolver:  Solving for e, Initial residual = 0.000239032, Final residual = 6.85328e-17, No Iterations 7
smoothSolver:  Solving for p, Initial residual = 2.99834e-05, Final residual = 5.61721e-17, No Iterations 6
diagonal:  Solving for rho, Initial residual = 0, Final residual = 0, No Iterations 0
time step continuity errors : sum local = 1.37607e-16, global = -5.56956e-17, cumulative = 1.2836e-15
ExecutionTime = 0.09 s  ClockTime = 0 s

Courant Number mean: 0.00227601 max: 0.299952
Time = 0.00011

PIMPLE: Iteration 1
diagonal:  Solving for rho, Initial residual = 0, Final residual = 0, No Iterations 0
smoothSolver:  Solving for Ux, Initial residual = 0.0178165, Final residual = 1.45854e-17, No Iterations 1
smoothSolver:  Solving for e, Initial residual = 0.000917977, Final residual = 1.27231e-16, No Iterations 7
smoothSolver:  Solving for p, Initial residual = 0.000292741, Final residual = 1.23094e-16, No Iterations 6
diagonal:  Solving for rho, Initial residual = 0, Final residual = 0, No Iterations 0
time step continuity errors : sum local = 2.62007e-16, global = 4.31319e-17, cumulative = 1.32673e-15
PIMPLE: Iteration 2
smoothSolver:  Solving for Ux, Initial residual = 0.000867683, Final residual = 1.04109e-17, No Iterations 1
smoothSolver:  Solving for e, Initial residual = 0.000221154, Final residual = 1.09129e-16, No Iterations 7
smoothSolver:  Solving for p, Initial residual = 2.71175e-05, Final residual = 6.105e-17, No Iterations 6
diagonal:  Solving for rho, Initial residual = 0, Final residual = 0, No Iterations 0
time step continuity errors : sum local = 1.40204e-16, global = -6.08645e-17, cumulative = 1.26586e-15
ExecutionTime = 0.09 s  ClockTime = 0 s

Courant Number mean: 0.00249613 max: 0.299819
Time = 0.00012

PIMPLE: Iteration 1
diagonal:  Solving for rho, Initial residual = 0, Final residual = 0, No Iterations 0
smoothSolver:  Solving for Ux, Initial residual = 0.0163019, Final residual = 1.59598e-17, No Iterations 1
smoothSolver:  Solving for e, Initial residual = 0.000956796, Final residual = 2.2998e-16, No Iterations 7
smoothSolver:  Solving for p, Initial residual = 0.000291791, Final residual = 9.60783e-17, No Iterations 6
diagonal:  Solving for rho, Initial residual = 0, Final residual = 0, No Iterations 0
time step continuity errors : sum local = 2.1383e-16, global = 1.43443e-18, cumulative = 1.2673e-15
PIMPLE: Iteration 2
smoothSolver:  Solving for Ux, Initial residual = 0.000761968, Final residual = 1.26098e-17, No Iterations 1
smoothSolver:  Solving for e, Initial residual = 0.000224688, Final residual = 7.36853e-17, No Iterations 7
smoothSolver:  Solving for p, Initial residual = 2.76808e-05, Final residual = 5.87944e-17, No Iterations 6
diagonal:  Solving for rho, Initial residual = 0, Final residual = 0, No Iterations 0
time step continuity errors : sum local = 1.37384e-16, global = -6.11118e-17, cumulative = 1.20619e-15
ExecutionTime = 0.1 s  ClockTime = 0 s

Courant Number mean: 0.00272034 max: 0.301891
Time = 0.00013

PIMPLE: Iteration 1
diagonal:  Solving for rho, Initial residual = 0, Final residual = 0, No Iterations 0
smoothSolver:  Solving for Ux, Initial residual = 0.0150109, Final residual = 1.2554e-17, No Iterations 1
smoothSolver:  Solving for e, Initial residual = 0.000973455, Final residual = 2.33559e-16, No Iterations 7
smoothSolver:  Solving for p, Initial residual = 0.000293697, Final residual = 9.1943e-17, No Iterations 6
diagonal:  Solving for rho, Initial residual = 0, Final residual = 0, No Iterations 0
time step continuity errors : sum local = 2.19938e-16, global = -2.53994e-17, cumulative = 1.18079e-15
PIMPLE: Iteration 2
smoothSolver:  Solving for Ux, Initial residual = 0.000679982, Final residual = 1.0108e-17, No Iterations 1
smoothSolver:  Solving for e, Initial residual = 0.000235834, Final residual = 7.42201e-17, No Iterations 7
smoothSolver:  Solving for p, Initial residual = 3.02829e-05, Final residual = 5.64885e-17, No Iterations 6
diagonal:  Solving for rho, Initial residual = 0, Final residual = 0, No Iterations 0
time step continuity errors : sum local = 1.4656e-16, global = -6.727e-17, cumulative = 1.11352e-15
ExecutionTime = 0.11 s  ClockTime = 0 s

Courant Number mean: 0.0029453 max: 0.303219
Time = 0.00014

PIMPLE: Iteration 1
diagonal:  Solving for rho, Initial residual = 0, Final residual = 0, No Iterations 0
smoothSolver:  Solving for Ux, Initial residual = 0.0138632, Final residual = 1.53779e-17, No Iterations 1
smoothSolver:  Solving for e, Initial residual = 0.00100207, Final residual = 3.1936e-16, No Iterations 7
smoothSolver:  Solving for p, Initial residual = 0.000293035, Final residual = 7.55147e-17, No Iterations 6
diagonal:  Solving for rho, Initial residual = 0, Final residual = 0, No Iterations 0
time step continuity errors : sum local = 1.82767e-16, global = -5.61902e-17, cumulative = 1.05733e-15
PIMPLE: Iteration 2
smoothSolver:  Solving for Ux, Initial residual = 0.000603003, Final residual = 1.46734e-17, No Iterations 1
smoothSolver:  Solving for e, Initial residual = 0.000266938, Final residual = 8.2604e-17, No Iterations 7
smoothSolver:  Solving for p, Initial residual = 3.12385e-05, Final residual = 5.68371e-17, No Iterations 6
diagonal:  Solving for rho, Initial residual = 0, Final residual = 0, No Iterations 0
time step continuity errors : sum local = 1.41589e-16, global = -5.25052e-17, cumulative = 1.00482e-15
ExecutionTime = 0.11 s  ClockTime = 0 s

Courant Number mean: 0.00316785 max: 0.303311
Time = 0.00015

PIMPLE: Iteration 1
diagonal:  Solving for rho, Initial residual = 0, Final residual = 0, No Iterations 0
smoothSolver:  Solving for Ux, Initial residual = 0.0129045, Final residual = 1.20134e-17, No Iterations 1
smoothSolver:  Solving for e, Initial residual = 0.00100135, Final residual = 3.69013e-16, No Iterations 7
smoothSolver:  Solving for p, Initial residual = 0.000291111, Final residual = 7.65586e-17, No Iterations 6
diagonal:  Solving for rho, Initial residual = 0, Final residual = 0, No Iterations 0
time step continuity errors : sum local = 1.76559e-16, global = -3.75179e-17, cumulative = 9.67303e-16
PIMPLE: Iteration 2
smoothSolver:  Solving for Ux, Initial residual = 0.000556155, Final residual = 1.18115e-17, No Iterations 1
smoothSolver:  Solving for e, Initial residual = 0.000245514, Final residual = 9.26076e-17, No Iterations 7
smoothSolver:  Solving for p, Initial residual = 3.22403e-05, Final residual = 1.41615e-16, No Iterations 6
diagonal:  Solving for rho, Initial residual = 0, Final residual = 0, No Iterations 0
time step continuity errors : sum local = 2.90967e-16, global = -1.93327e-16, cumulative = 7.73976e-16
ExecutionTime = 0.12 s  ClockTime = 0 s

Courant Number mean: 0.00339374 max: 0.305194
Time = 0.00016

PIMPLE: Iteration 1
diagonal:  Solving for rho, Initial residual = 0, Final residual = 0, No Iterations 0
smoothSolver:  Solving for Ux, Initial residual = 0.0120297, Final residual = 1.07233e-17, No Iterations 1
smoothSolver:  Solving for e, Initial residual = 0.00101413, Final residual = 4.94343e-16, No Iterations 7
smoothSolver:  Solving for p, Initial residual = 0.000290087, Final residual = 1.21796e-16, No Iterations 6
diagonal:  Solving for rho, Initial residual = 0, Final residual = 0, No Iterations 0
time step continuity errors : sum local = 2.67868e-16, global = 4.83009e-17, cumulative = 8.22277e-16
PIMPLE: Iteration 2
smoothSolver:  Solving for Ux, Initial residual = 0.000510569, Final residual = 1.85063e-17, No Iterations 1
smoothSolver:  Solving for e, Initial residual = 0.000232397, Final residual = 9.30889e-17, No Iterations 7
smoothSolver:  Solving for p, Initial residual = 2.81082e-05, Final residual = 1.92041e-16, No Iterations 6
diagonal:  Solving for rho, Initial residual = 0, Final residual = 0, No Iterations 0
time step continuity errors : sum local = 3.80817e-16, global = -2.74422e-16, cumulative = 5.47855e-16
ExecutionTime = 0.13 s  ClockTime = 1 s

Courant Number mean: 0.00361647 max: 0.304918
Time = 0.00017

PIMPLE: Iteration 1
diagonal:  Solving for rho, Initial residual = 0, Final residual = 0, No Iterations 0
smoothSolver:  Solving for Ux, Initial residual = 0.0112381, Final residual = 1.47667e-17, No Iterations 1
smoothSolver:  Solving for e, Initial residual = 0.00101469, Final residual = 4.98453e-16, No Iterations 7
smoothSolver:  Solving for p, Initial residual = 0.000289832, Final residual = 3.38785e-16, No Iterations 6
diagonal:  Solving for rho, Initial residual = 0, Final residual = 0, No Iterations 0
time step continuity errors : sum local = 6.47672e-16, global = 3.17356e-16, cumulative = 8.65211e-16
PIMPLE: Iteration 2
smoothSolver:  Solving for Ux, Initial residual = 0.000470689, Final residual = 1.60951e-17, No Iterations 1
smoothSolver:  Solving for e, Initial residual = 0.000196674, Final residual = 1.01894e-16, No Iterations 7
smoothSolver:  Solving for p, Initial residual = 2.73932e-05, Final residual = 2.05233e-16, No Iterations 6
diagonal:  Solving for rho, Initial residual = 0, Final residual = 0, No Iterations 0
time step continuity errors : sum local = 4.17964e-16, global = -3.29969e-16, cumulative = 5.35242e-16
ExecutionTime = 0.14 s  ClockTime = 1 s

Courant Number mean: 0.00383832 max: 0.303932
Time = 0.00018

PIMPLE: Iteration 1
diagonal:  Solving for rho, Initial residual = 0, Final residual = 0, No Iterations 0
smoothSolver:  Solving for Ux, Initial residual = 0.010563, Final residual = 1.30784e-17, No Iterations 1
smoothSolver:  Solving for e, Initial residual = 0.00102337, Final residual = 6.01942e-16, No Iterations 7
smoothSolver:  Solving for p, Initial residual = 0.00028982, Final residual = 1.90749e-16, No Iterations 6
diagonal:  Solving for rho, Initial residual = 0, Final residual = 0, No Iterations 0
time step continuity errors : sum local = 3.90859e-16, global = 9.04188e-17, cumulative = 6.25661e-16
PIMPLE: Iteration 2
smoothSolver:  Solving for Ux, Initial residual = 0.000447421, Final residual = 1.58185e-17, No Iterations 1
smoothSolver:  Solving for e, Initial residual = 0.000209606, Final residual = 9.95973e-17, No Iterations 7
smoothSolver:  Solving for p, Initial residual = 2.64696e-05, Final residual = 2.10611e-16, No Iterations 6
diagonal:  Solving for rho, Initial residual = 0, Final residual = 0, No Iterations 0
time step continuity errors : sum local = 4.15392e-16, global = -3.27743e-16, cumulative = 2.97917e-16
ExecutionTime = 0.14 s  ClockTime = 1 s

Courant Number mean: 0.00405932 max: 0.303403
Time = 0.00019

PIMPLE: Iteration 1
diagonal:  Solving for rho, Initial residual = 0, Final residual = 0, No Iterations 0
smoothSolver:  Solving for Ux, Initial residual = 0.00996338, Final residual = 2.041e-17, No Iterations 1
smoothSolver:  Solving for e, Initial residual = 0.00102358, Final residual = 5.61076e-16, No Iterations 7
smoothSolver:  Solving for p, Initial residual = 0.000290071, Final residual = 3.22184e-16, No Iterations 6
diagonal:  Solving for rho, Initial residual = 0, Final residual = 0, No Iterations 0
time step continuity errors : sum local = 6.30978e-16, global = 2.70836e-16, cumulative = 5.68753e-16
PIMPLE: Iteration 2
smoothSolver:  Solving for Ux, Initial residual = 0.000407377, Final residual = 1.36014e-17, No Iterations 1
smoothSolver:  Solving for e, Initial residual = 0.000202431, Final residual = 1.04744e-16, No Iterations 7
smoothSolver:  Solving for p, Initial residual = 2.68486e-05, Final residual = 2.188e-16, No Iterations 6
diagonal:  Solving for rho, Initial residual = 0, Final residual = 0, No Iterations 0
time step continuity errors : sum local = 4.40198e-16, global = -3.44635e-16, cumulative = 2.24118e-16
ExecutionTime = 0.15 s  ClockTime = 1 s

Courant Number mean: 0.00427855 max: 0.302779
Time = 0.0002

PIMPLE: Iteration 1
diagonal:  Solving for rho, Initial residual = 0, Final residual = 0, No Iterations 0
smoothSolver:  Solving for Ux, Initial residual = 0.00942391, Final residual = 1.44876e-17, No Iterations 1
smoothSolver:  Solving for e, Initial residual = 0.00103492, Final residual = 6.10851e-16, No Iterations 7
smoothSolver:  Solving for p, Initial residual = 0.000289845, Final residual = 1.99876e-16, No Iterations 6
diagonal:  Solving for rho, Initial residual = 0, Final residual = 0, No Iterations 0
time step continuity errors : sum local = 3.96448e-16, global = 6.51431e-17, cumulative = 2.89261e-16
PIMPLE: Iteration 2
smoothSolver:  Solving for Ux, Initial residual = 0.000389544, Final residual = 1.12983e-17, No Iterations 1
smoothSolver:  Solving for e, Initial residual = 0.000214008, Final residual = 9.56594e-17, No Iterations 7
smoothSolver:  Solving for p, Initial residual = 2.76463e-05, Final residual = 1.90493e-16, No Iterations 6
diagonal:  Solving for rho, Initial residual = 0, Final residual = 0, No Iterations 0
time step continuity errors : sum local = 3.7738e-16, global = -2.80333e-16, cumulative = 8.92811e-18
ExecutionTime = 0.16 s  ClockTime = 1 s

Courant Number mean: 0.00449902 max: 0.302078
Time = 0.00021

PIMPLE: Iteration 1
diagonal:  Solving for rho, Initial residual = 0, Final residual = 0, No Iterations 0
smoothSolver:  Solving for Ux, Initial residual = 0.00894679, Final residual = 1.39119e-17, No Iterations 1
smoothSolver:  Solving for e, Initial residual = 0.00104035, Final residual = 5.95422e-16, No Iterations 7
smoothSolver:  Solving for p, Initial residual = 0.000289898, Final residual = 2.80671e-16, No Iterations 6
diagonal:  Solving for rho, Initial residual = 0, Final residual = 0, No Iterations 0
time step continuity errors : sum local = 5.5525e-16, global = 2.36607e-16, cumulative = 2.45536e-16
PIMPLE: Iteration 2
smoothSolver:  Solving for Ux, Initial residual = 0.000360241, Final residual = 1.35028e-17, No Iterations 1
smoothSolver:  Solving for e, Initial residual = 0.00019615, Final residual = 1.06908e-16, No Iterations 7
smoothSolver:  Solving for p, Initial residual = 2.50319e-05, Final residual = 1.41869e-16, No Iterations 6
diagonal:  Solving for rho, Initial residual = 0, Final residual = 0, No Iterations 0
time step continuity errors : sum local = 2.89212e-16, global = -1.9632e-16, cumulative = 4.92159e-17
ExecutionTime = 0.16 s  ClockTime = 1 s

Courant Number mean: 0.00471553 max: 0.30074
Time = 0.00022

PIMPLE: Iteration 1
diagonal:  Solving for rho, Initial residual = 0, Final residual = 0, No Iterations 0
smoothSolver:  Solving for Ux, Initial residual = 0.00851785, Final residual = 1.34161e-17, No Iterations 1
smoothSolver:  Solving for e, Initial residual = 0.00104626, Final residual = 5.87627e-16, No Iterations 7
smoothSolver:  Solving for p, Initial residual = 0.000290163, Final residual = 1.76006e-16, No Iterations 6
diagonal:  Solving for rho, Initial residual = 0, Final residual = 0, No Iterations 0
time step continuity errors : sum local = 3.74907e-16, global = 7.69895e-17, cumulative = 1.26205e-16
PIMPLE: Iteration 2
smoothSolver:  Solving for Ux, Initial residual = 0.000339198, Final residual = 1.01467e-17, No Iterations 1
smoothSolver:  Solving for e, Initial residual = 0.000203202, Final residual = 8.27059e-17, No Iterations 7
smoothSolver:  Solving for p, Initial residual = 2.69821e-05, Final residual = 1.42763e-16, No Iterations 6
diagonal:  Solving for rho, Initial residual = 0, Final residual = 0, No Iterations 0
time step continuity errors : sum local = 3.05163e-16, global = -2.13755e-16, cumulative = -8.75499e-17
ExecutionTime = 0.17 s  ClockTime = 1 s

Courant Number mean: 0.00493476 max: 0.299743
Time = 0.00023

PIMPLE: Iteration 1
diagonal:  Solving for rho, Initial residual = 0, Final residual = 0, No Iterations 0
smoothSolver:  Solving for Ux, Initial residual = 0.00813315, Final residual = 1.86052e-17, No Iterations 1
smoothSolver:  Solving for e, Initial residual = 0.00105254, Final residual = 6.03476e-16, No Iterations 7
smoothSolver:  Solving for p, Initial residual = 0.000291295, Final residual = 1.24471e-16, No Iterations 6
diagonal:  Solving for rho, Initial residual = 0, Final residual = 0, No Iterations 0
time step continuity errors : sum local = 2.7143e-16, global = 3.58608e-18, cumulative = -8.39638e-17
PIMPLE: Iteration 2
smoothSolver:  Solving for Ux, Initial residual = 0.000323297, Final residual = 1.31253e-17, No Iterations 1
smoothSolver:  Solving for e, Initial residual = 0.000200211, Final residual = 1.06409e-16, No Iterations 7
smoothSolver:  Solving for p, Initial residual = 2.41258e-05, Final residual = 1.48468e-16, No Iterations 6
diagonal:  Solving for rho, Initial residual = 0, Final residual = 0, No Iterations 0
time step continuity errors : sum local = 3.06944e-16, global = -1.83781e-16, cumulative = -2.67745e-16
ExecutionTime = 0.18 s  ClockTime = 1 s

Courant Number mean: 0.00515228 max: 0.299396
Time = 0.00024

PIMPLE: Iteration 1
diagonal:  Solving for rho, Initial residual = 0, Final residual = 0, No Iterations 0
smoothSolver:  Solving for Ux, Initial residual = 0.0077825, Final residual = 1.86209e-17, No Iterations 1
smoothSolver:  Solving for e, Initial residual = 0.00105647, Final residual = 5.19524e-16, No Iterations 7
smoothSolver:  Solving for p, Initial residual = 0.000292212, Final residual = 1.6825e-16, No Iterations 6
diagonal:  Solving for rho, Initial residual = 0, Final residual = 0, No Iterations 0
time step continuity errors : sum local = 3.52351e-16, global = 6.81356e-17, cumulative = -1.99609e-16
PIMPLE: Iteration 2
smoothSolver:  Solving for Ux, Initial residual = 0.000301383, Final residual = 1.41102e-17, No Iterations 1
smoothSolver:  Solving for e, Initial residual = 0.000214781, Final residual = 7.67697e-17, No Iterations 7
smoothSolver:  Solving for p, Initial residual = 2.64947e-05, Final residual = 1.76075e-16, No Iterations 6
diagonal:  Solving for rho, Initial residual = 0, Final residual = 0, No Iterations 0
time step continuity errors : sum local = 3.53984e-16, global = -2.05248e-16, cumulative = -4.04857e-16
ExecutionTime = 0.18 s  ClockTime = 1 s

Courant Number mean: 0.00537106 max: 0.29905
Time = 0.00025

PIMPLE: Iteration 1
diagonal:  Solving for rho, Initial residual = 0, Final residual = 0, No Iterations 0
smoothSolver:  Solving for Ux, Initial residual = 0.00746094, Final residual = 1.19758e-17, No Iterations 1
smoothSolver:  Solving for e, Initial residual = 0.00105748, Final residual = 5.60076e-16, No Iterations 7
smoothSolver:  Solving for p, Initial residual = 0.000292527, Final residual = 1.76378e-16, No Iterations 6
diagonal:  Solving for rho, Initial residual = 0, Final residual = 0, No Iterations 0
time step continuity errors : sum local = 3.59721e-16, global = 4.51847e-17, cumulative = -3.59672e-16
PIMPLE: Iteration 2
smoothSolver:  Solving for Ux, Initial residual = 0.000290627, Final residual = 1.43118e-17, No Iterations 1
smoothSolver:  Solving for e, Initial residual = 0.000215996, Final residual = 9.2854e-17, No Iterations 7
smoothSolver:  Solving for p, Initial residual = 2.70335e-05, Final residual = 1.17554e-16, No Iterations 6
diagonal:  Solving for rho, Initial residual = 0, Final residual = 0, No Iterations 0
time step continuity errors : sum local = 2.50482e-16, global = -8.42359e-17, cumulative = -4.43908e-16
ExecutionTime = 0.19 s  ClockTime = 1 s

Courant Number mean: 0.00558901 max: 0.298541
Time = 0.00026

PIMPLE: Iteration 1
diagonal:  Solving for rho, Initial residual = 0, Final residual = 0, No Iterations 0
smoothSolver:  Solving for Ux, Initial residual = 0.00716302, Final residual = 1.39431e-17, No Iterations 1
smoothSolver:  Solving for e, Initial residual = 0.00106061, Final residual = 5.47597e-16, No Iterations 7
smoothSolver:  Solving for p, Initial residual = 0.000291806, Final residual = 1.57176e-16, No Iterations 6
diagonal:  Solving for rho, Initial residual = 0, Final residual = 0, No Iterations 0
time step continuity errors : sum local = 3.18741e-16, global = 3.5663e-17, cumulative = -4.08245e-16
PIMPLE: Iteration 2
smoothSolver:  Solving for Ux, Initial residual = 0.000267124, Final residual = 1.38322e-17, No Iterations 1
smoothSolver:  Solving for e, Initial residual = 0.000231013, Final residual = 8.24542e-17, No Iterations 7
smoothSolver:  Solving for p, Initial residual = 2.92713e-05, Final residual = 1.1742e-16, No Iterations 6
diagonal:  Solving for rho, Initial residual = 0, Final residual = 0, No Iterations 0
time step continuity errors : sum local = 2.50853e-16, global = -9.2521e-17, cumulative = -5.00766e-16
ExecutionTime = 0.2 s  ClockTime = 1 s

Courant Number mean: 0.00580685 max: 0.29813
Time = 0.00027

PIMPLE: Iteration 1
diagonal:  Solving for rho, Initial residual = 0, Final residual = 0, No Iterations 0
smoothSolver:  Solving for Ux, Initial residual = 0.00689123, Final residual = 1.01476e-17, No Iterations 1
smoothSolver:  Solving for e, Initial residual = 0.00106307, Final residual = 5.88422e-16, No Iterations 7
smoothSolver:  Solving for p, Initial residual = 0.000293846, Final residual = 1.63724e-16, No Iterations 6
diagonal:  Solving for rho, Initial residual = 0, Final residual = 0, No Iterations 0
time step continuity errors : sum local = 3.31132e-16, global = 1.81283e-17, cumulative = -4.82638e-16
PIMPLE: Iteration 2
smoothSolver:  Solving for Ux, Initial residual = 0.000261059, Final residual = 1.36417e-17, No Iterations 1
smoothSolver:  Solving for e, Initial residual = 0.000236409, Final residual = 1.05243e-16, No Iterations 7
smoothSolver:  Solving for p, Initial residual = 3.16946e-05, Final residual = 1.20755e-16, No Iterations 6
diagonal:  Solving for rho, Initial residual = 0, Final residual = 0, No Iterations 0
time step continuity errors : sum local = 2.52411e-16, global = -8.3395e-17, cumulative = -5.66033e-16
ExecutionTime = 0.21 s  ClockTime = 1 s

Courant Number mean: 0.00602605 max: 0.297608
Time = 0.00028

PIMPLE: Iteration 1
diagonal:  Solving for rho, Initial residual = 0, Final residual = 0, No Iterations 0
smoothSolver:  Solving for Ux, Initial residual = 0.00664551, Final residual = 1.33209e-17, No Iterations 1
smoothSolver:  Solving for e, Initial residual = 0.00106312, Final residual = 5.88025e-16, No Iterations 7
smoothSolver:  Solving for p, Initial residual = 0.000294888, Final residual = 1.39148e-16, No Iterations 6
diagonal:  Solving for rho, Initial residual = 0, Final residual = 0, No Iterations 0
time step continuity errors : sum local = 2.91462e-16, global = 2.19864e-17, cumulative = -5.44046e-16
PIMPLE: Iteration 2
smoothSolver:  Solving for Ux, Initial residual = 0.000243819, Final residual = 1.89857e-17, No Iterations 1
smoothSolver:  Solving for e, Initial residual = 0.000222179, Final residual = 8.57959e-17, No Iterations 7
smoothSolver:  Solving for p, Initial residual = 2.83081e-05, Final residual = 1.06253e-16, No Iterations 6
diagonal:  Solving for rho, Initial residual = 0, Final residual = 0, No Iterations 0
time step continuity errors : sum local = 2.22461e-16, global = -8.14412e-17, cumulative = -6.25487e-16
ExecutionTime = 0.22 s  ClockTime = 1 s

Courant Number mean: 0.0062429 max: 0.296879
Time = 0.00029

PIMPLE: Iteration 1
diagonal:  Solving for rho, Initial residual = 0, Final residual = 0, No Iterations 0
smoothSolver:  Solving for Ux, Initial residual = 0.00641274, Final residual = 1.11536e-17, No Iterations 1
smoothSolver:  Solving for e, Initial residual = 0.00106653, Final residual = 6.44126e-16, No Iterations 7
smoothSolver:  Solving for p, Initial residual = 0.000294507, Final residual = 1.19948e-16, No Iterations 6
diagonal:  Solving for rho, Initial residual = 0, Final residual = 0, No Iterations 0
time step continuity errors : sum local = 2.61562e-16, global = 1.43443e-18, cumulative = -6.24053e-16
PIMPLE: Iteration 2
smoothSolver:  Solving for Ux, Initial residual = 0.000235613, Final residual = 1.53194e-17, No Iterations 1
smoothSolver:  Solving for e, Initial residual = 0.000218888, Final residual = 9.88908e-17, No Iterations 7
smoothSolver:  Solving for p, Initial residual = 2.91688e-05, Final residual = 9.07846e-17, No Iterations 6
diagonal:  Solving for rho, Initial residual = 0, Final residual = 0, No Iterations 0
time step continuity errors : sum local = 2.06509e-16, global = -5.49042e-17, cumulative = -6.78957e-16
ExecutionTime = 0.22 s  ClockTime = 1 s

Courant Number mean: 0.00646166 max: 0.296483
Time = 0.0003

PIMPLE: Iteration 1
diagonal:  Solving for rho, Initial residual = 0, Final residual = 0, No Iterations 0
smoothSolver:  Solving for Ux, Initial residual = 0.00619642, Final residual = 1.35698e-17, No Iterations 1
smoothSolver:  Solving for e, Initial residual = 0.00106417, Final residual = 6.64316e-16, No Iterations 7
smoothSolver:  Solving for p, Initial residual = 0.000294092, Final residual = 1.24589e-16, No Iterations 6
diagonal:  Solving for rho, Initial residual = 0, Final residual = 0, No Iterations 0
time step continuity errors : sum local = 2.67299e-16, global = -7.12271e-18, cumulative = -6.8608e-16
PIMPLE: Iteration 2
smoothSolver:  Solving for Ux, Initial residual = 0.000224311, Final residual = 1.31459e-17, No Iterations 1
smoothSolver:  Solving for e, Initial residual = 0.0002039, Final residual = 7.98775e-17, No Iterations 7
smoothSolver:  Solving for p, Initial residual = 2.64209e-05, Final residual = 8.82389e-17, No Iterations 6
diagonal:  Solving for rho, Initial residual = 0, Final residual = 0, No Iterations 0
time step continuity errors : sum local = 2.01884e-16, global = -4.95374e-17, cumulative = -7.35617e-16
ExecutionTime = 0.23 s  ClockTime = 1 s

Courant Number mean: 0.00667727 max: 0.297147
Time = 0.00031

PIMPLE: Iteration 1
diagonal:  Solving for rho, Initial residual = 0, Final residual = 0, No Iterations 0
smoothSolver:  Solving for Ux, Initial residual = 0.00599054, Final residual = 1.49545e-17, No Iterations 1
smoothSolver:  Solving for e, Initial residual = 0.00106486, Final residual = 6.59823e-16, No Iterations 7
smoothSolver:  Solving for p, Initial residual = 0.000294704, Final residual = 1.35389e-16, No Iterations 6
diagonal:  Solving for rho, Initial residual = 0, Final residual = 0, No Iterations 0
time step continuity errors : sum local = 2.90127e-16, global = -2.69327e-17, cumulative = -7.6255e-16
PIMPLE: Iteration 2
smoothSolver:  Solving for Ux, Initial residual = 0.000214787, Final residual = 1.24065e-17, No Iterations 1
smoothSolver:  Solving for e, Initial residual = 0.00021395, Final residual = 8.54827e-17, No Iterations 7
smoothSolver:  Solving for p, Initial residual = 2.97803e-05, Final residual = 1.02026e-16, No Iterations 6
diagonal:  Solving for rho, Initial residual = 0, Final residual = 0, No Iterations 0
time step continuity errors : sum local = 2.18801e-16, global = -8.66843e-17, cumulative = -8.49234e-16
ExecutionTime = 0.24 s  ClockTime = 1 s

Courant Number mean: 0.006893 max: 0.297692
Time = 0.00032

PIMPLE: Iteration 1
diagonal:  Solving for rho, Initial residual = 0, Final residual = 0, No Iterations 0
smoothSolver:  Solving for Ux, Initial residual = 0.00580087, Final residual = 1.66219e-17, No Iterations 1
smoothSolver:  Solving for e, Initial residual = 0.00106437, Final residual = 5.71063e-16, No Iterations 7
smoothSolver:  Solving for p, Initial residual = 0.000296259, Final residual = 1.5444e-16, No Iterations 6
diagonal:  Solving for rho, Initial residual = 0, Final residual = 0, No Iterations 0
time step continuity errors : sum local = 3.15699e-16, global = -2.83672e-17, cumulative = -8.77602e-16
PIMPLE: Iteration 2
smoothSolver:  Solving for Ux, Initial residual = 0.000209912, Final residual = 1.37769e-17, No Iterations 1
smoothSolver:  Solving for e, Initial residual = 0.000221635, Final residual = 8.80267e-17, No Iterations 7
smoothSolver:  Solving for p, Initial residual = 3.07452e-05, Final residual = 9.92996e-17, No Iterations 6
diagonal:  Solving for rho, Initial residual = 0, Final residual = 0, No Iterations 0
time step continuity errors : sum local = 2.0599e-16, global = -8.03036e-17, cumulative = -9.57905e-16
ExecutionTime = 0.24 s  ClockTime = 1 s

Courant Number mean: 0.00710844 max: 0.298053
Time = 0.00033

PIMPLE: Iteration 1
diagonal:  Solving for rho, Initial residual = 0, Final residual = 0, No Iterations 0
smoothSolver:  Solving for Ux, Initial residual = 0.00562646, Final residual = 1.52048e-17, No Iterations 1
smoothSolver:  Solving for e, Initial residual = 0.0010643, Final residual = 5.67762e-16, No Iterations 7
smoothSolver:  Solving for p, Initial residual = 0.000296232, Final residual = 1.06448e-16, No Iterations 6
diagonal:  Solving for rho, Initial residual = 0, Final residual = 0, No Iterations 0
time step continuity errors : sum local = 2.25355e-16, global = -8.70553e-18, cumulative = -9.66611e-16
PIMPLE: Iteration 2
smoothSolver:  Solving for Ux, Initial residual = 0.000198724, Final residual = 1.5136e-17, No Iterations 1
smoothSolver:  Solving for e, Initial residual = 0.000215691, Final residual = 9.56409e-17, No Iterations 7
smoothSolver:  Solving for p, Initial residual = 2.9267e-05, Final residual = 7.8561e-17, No Iterations 6
diagonal:  Solving for rho, Initial residual = 0, Final residual = 0, No Iterations 0
time step continuity errors : sum local = 1.76114e-16, global = -7.20432e-17, cumulative = -1.03865e-15
ExecutionTime = 0.25 s  ClockTime = 1 s

Courant Number mean: 0.00732457 max: 0.29813
Time = 0.00034

PIMPLE: Iteration 1
diagonal:  Solving for rho, Initial residual = 0, Final residual = 0, No Iterations 0
smoothSolver:  Solving for Ux, Initial residual = 0.0054619, Final residual = 1.19346e-17, No Iterations 1
smoothSolver:  Solving for e, Initial residual = 0.00106517, Final residual = 5.67845e-16, No Iterations 7
smoothSolver:  Solving for p, Initial residual = 0.000294621, Final residual = 1.35763e-16, No Iterations 6
diagonal:  Solving for rho, Initial residual = 0, Final residual = 0, No Iterations 0
time step continuity errors : sum local = 2.78082e-16, global = -5.75752e-17, cumulative = -1.09623e-15
PIMPLE: Iteration 2
smoothSolver:  Solving for Ux, Initial residual = 0.000194634, Final residual = 1.55793e-17, No Iterations 1
smoothSolver:  Solving for e, Initial residual = 0.000212602, Final residual = 8.5494e-17, No Iterations 7
smoothSolver:  Solving for p, Initial residual = 3.00963e-05, Final residual = 6.88623e-17, No Iterations 6
diagonal:  Solving for rho, Initial residual = 0, Final residual = 0, No Iterations 0
time step continuity errors : sum local = 1.60533e-16, global = -4.17222e-17, cumulative = -1.13795e-15
ExecutionTime = 0.25 s  ClockTime = 1 s

Courant Number mean: 0.00754201 max: 0.29781
Time = 0.00035

PIMPLE: Iteration 1
diagonal:  Solving for rho, Initial residual = 0, Final residual = 0, No Iterations 0
smoothSolver:  Solving for Ux, Initial residual = 0.00531007, Final residual = 1.45765e-17, No Iterations 1
smoothSolver:  Solving for e, Initial residual = 0.00106848, Final residual = 5.75402e-16, No Iterations 7
smoothSolver:  Solving for p, Initial residual = 0.000294154, Final residual = 1.09852e-16, No Iterations 6
diagonal:  Solving for rho, Initial residual = 0, Final residual = 0, No Iterations 0
time step continuity errors : sum local = 2.3317e-16, global = -3.91749e-17, cumulative = -1.17713e-15
PIMPLE: Iteration 2
smoothSolver:  Solving for Ux, Initial residual = 0.000180366, Final residual = 1.63469e-17, No Iterations 1
smoothSolver:  Solving for e, Initial residual = 0.000196583, Final residual = 1.00512e-16, No Iterations 7
smoothSolver:  Solving for p, Initial residual = 2.7532e-05, Final residual = 6.37506e-17, No Iterations 6
diagonal:  Solving for rho, Initial residual = 0, Final residual = 0, No Iterations 0
time step continuity errors : sum local = 1.50517e-16, global = -2.90844e-17, cumulative = -1.20621e-15
ExecutionTime = 0.26 s  ClockTime = 1 s

Courant Number mean: 0.00775867 max: 0.297212
Time = 0.00036

PIMPLE: Iteration 1
diagonal:  Solving for rho, Initial residual = 0, Final residual = 0, No Iterations 0
smoothSolver:  Solving for Ux, Initial residual = 0.00516649, Final residual = 1.76958e-17, No Iterations 1
smoothSolver:  Solving for e, Initial residual = 0.00106758, Final residual = 6.24835e-16, No Iterations 7
smoothSolver:  Solving for p, Initial residual = 0.000294276, Final residual = 1.10971e-16, No Iterations 6
diagonal:  Solving for rho, Initial residual = 0, Final residual = 0, No Iterations 0
time step continuity errors : sum local = 2.41282e-16, global = -6.1829e-18, cumulative = -1.21239e-15
PIMPLE: Iteration 2
smoothSolver:  Solving for Ux, Initial residual = 0.000177621, Final residual = 1.25851e-17, No Iterations 1
smoothSolver:  Solving for e, Initial residual = 0.000198544, Final residual = 9.14347e-17, No Iterations 7
smoothSolver:  Solving for p, Initial residual = 2.75784e-05, Final residual = 5.60892e-17, No Iterations 6
diagonal:  Solving for rho, Initial residual = 0, Final residual = 0, No Iterations 0
time step continuity errors : sum local = 1.39536e-16, global = -3.55641e-17, cumulative = -1.24796e-15
ExecutionTime = 0.27 s  ClockTime = 1 s

Courant Number mean: 0.0079777 max: 0.296536
Time = 0.00037

PIMPLE: Iteration 1
diagonal:  Solving for rho, Initial residual = 0, Final residual = 0, No Iterations 0
smoothSolver:  Solving for Ux, Initial residual = 0.00503118, Final residual = 1.75185e-17, No Iterations 1
smoothSolver:  Solving for e, Initial residual = 0.00106645, Final residual = 6.46083e-16, No Iterations 7
smoothSolver:  Solving for p, Initial residual = 0.000294013, Final residual = 1.11157e-16, No Iterations 6
diagonal:  Solving for rho, Initial residual = 0, Final residual = 0, No Iterations 0
time step continuity errors : sum local = 2.4049e-16, global = -7.71627e-18, cumulative = -1.25567e-15
PIMPLE: Iteration 2
smoothSolver:  Solving for Ux, Initial residual = 0.000167786, Final residual = 1.66285e-17, No Iterations 1
smoothSolver:  Solving for e, Initial residual = 0.000176405, Final residual = 8.22216e-17, No Iterations 7
smoothSolver:  Solving for p, Initial residual = 2.31146e-05, Final residual = 5.61667e-17, No Iterations 6
diagonal:  Solving for rho, Initial residual = 0, Final residual = 0, No Iterations 0
time step continuity errors : sum local = 1.35406e-16, global = -2.47564e-17, cumulative = -1.28043e-15
ExecutionTime = 0.27 s  ClockTime = 1 s

Courant Number mean: 0.00819456 max: 0.295926
Time = 0.00038

PIMPLE: Iteration 1
diagonal:  Solving for rho, Initial residual = 0, Final residual = 0, No Iterations 0
smoothSolver:  Solving for Ux, Initial residual = 0.00489695, Final residual = 1.23075e-17, No Iterations 1
smoothSolver:  Solving for e, Initial residual = 0.00106815, Final residual = 6.86377e-16, No Iterations 7
smoothSolver:  Solving for p, Initial residual = 0.000293309, Final residual = 8.33885e-17, No Iterations 6
diagonal:  Solving for rho, Initial residual = 0, Final residual = 0, No Iterations 0
time step continuity errors : sum local = 1.95479e-16, global = -5.59429e-17, cumulative = -1.33637e-15
PIMPLE: Iteration 2
smoothSolver:  Solving for Ux, Initial residual = 0.000164378, Final residual = 1.59007e-17, No Iterations 1
smoothSolver:  Solving for e, Initial residual = 0.000183975, Final residual = 8.17345e-17, No Iterations 7
smoothSolver:  Solving for p, Initial residual = 2.52283e-05, Final residual = 5.48013e-17, No Iterations 6
diagonal:  Solving for rho, Initial residual = 0, Final residual = 0, No Iterations 0
time step continuity errors : sum local = 1.32116e-16, global = -2.06756e-17, cumulative = -1.35705e-15
ExecutionTime = 0.28 s  ClockTime = 1 s

Courant Number mean: 0.00841393 max: 0.295469
Time = 0.00039

PIMPLE: Iteration 1
diagonal:  Solving for rho, Initial residual = 0, Final residual = 0, No Iterations 0
smoothSolver:  Solving for Ux, Initial residual = 0.00477097, Final residual = 1.40963e-17, No Iterations 1
smoothSolver:  Solving for e, Initial residual = 0.00106876, Final residual = 6.69256e-16, No Iterations 7
smoothSolver:  Solving for p, Initial residual = 0.000293483, Final residual = 9.13411e-17, No Iterations 6
diagonal:  Solving for rho, Initial residual = 0, Final residual = 0, No Iterations 0
time step continuity errors : sum local = 2.02404e-16, global = -5.28762e-17, cumulative = -1.40992e-15
PIMPLE: Iteration 2
smoothSolver:  Solving for Ux, Initial residual = 0.000159374, Final residual = 1.24677e-17, No Iterations 1
smoothSolver:  Solving for e, Initial residual = 0.000177321, Final residual = 7.42023e-17, No Iterations 7
smoothSolver:  Solving for p, Initial residual = 2.38389e-05, Final residual = 6.35632e-17, No Iterations 6
diagonal:  Solving for rho, Initial residual = 0, Final residual = 0, No Iterations 0
time step continuity errors : sum local = 1.53361e-16, global = -3.22253e-17, cumulative = -1.44215e-15
ExecutionTime = 0.29 s  ClockTime = 1 s

Courant Number mean: 0.00862964 max: 0.295418
Time = 0.0004

PIMPLE: Iteration 1
diagonal:  Solving for rho, Initial residual = 0, Final residual = 0, No Iterations 0
smoothSolver:  Solving for Ux, Initial residual = 0.0046516, Final residual = 1.75425e-17, No Iterations 1
smoothSolver:  Solving for e, Initial residual = 0.00106763, Final residual = 6.23262e-16, No Iterations 7
smoothSolver:  Solving for p, Initial residual = 0.000294648, Final residual = 1.17421e-16, No Iterations 6
diagonal:  Solving for rho, Initial residual = 0, Final residual = 0, No Iterations 0
time step continuity errors : sum local = 2.54909e-16, global = -2.78725e-17, cumulative = -1.47002e-15
PIMPLE: Iteration 2
smoothSolver:  Solving for Ux, Initial residual = 0.000155665, Final residual = 1.31275e-17, No Iterations 1
smoothSolver:  Solving for e, Initial residual = 0.000196057, Final residual = 8.38264e-17, No Iterations 7
smoothSolver:  Solving for p, Initial residual = 2.79484e-05, Final residual = 7.81106e-17, No Iterations 6
diagonal:  Solving for rho, Initial residual = 0, Final residual = 0, No Iterations 0
time step continuity errors : sum local = 1.74383e-16, global = -6.43764e-17, cumulative = -1.5344e-15
ExecutionTime = 0.29 s  ClockTime = 1 s

Courant Number mean: 0.00884794 max: 0.295817
Time = 0.00041

PIMPLE: Iteration 1
diagonal:  Solving for rho, Initial residual = 0, Final residual = 0, No Iterations 0
smoothSolver:  Solving for Ux, Initial residual = 0.00454081, Final residual = 1.54031e-17, No Iterations 1
smoothSolver:  Solving for e, Initial residual = 0.00106747, Final residual = 6.02114e-16, No Iterations 7
smoothSolver:  Solving for p, Initial residual = 0.000294696, Final residual = 1.0864e-16, No Iterations 6
diagonal:  Solving for rho, Initial residual = 0, Final residual = 0, No Iterations 0
time step continuity errors : sum local = 2.38734e-16, global = -1.90681e-17, cumulative = -1.55347e-15
PIMPLE: Iteration 2
smoothSolver:  Solving for Ux, Initial residual = 0.00015241, Final residual = 1.60729e-17, No Iterations 1
smoothSolver:  Solving for e, Initial residual = 0.000188911, Final residual = 8.07744e-17, No Iterations 7
smoothSolver:  Solving for p, Initial residual = 2.57985e-05, Final residual = 7.43266e-17, No Iterations 6
diagonal:  Solving for rho, Initial residual = 0, Final residual = 0, No Iterations 0
time step continuity errors : sum local = 1.65084e-16, global = -5.08729e-17, cumulative = -1.60434e-15
ExecutionTime = 0.3 s  ClockTime = 1 s

Courant Number mean: 0.00906513 max: 0.295973
Time = 0.00042

PIMPLE: Iteration 1
diagonal:  Solving for rho, Initial residual = 0, Final residual = 0, No Iterations 0
smoothSolver:  Solving for Ux, Initial residual = 0.00443497, Final residual = 1.43517e-17, No Iterations 1
smoothSolver:  Solving for e, Initial residual = 0.00106738, Final residual = 6.16391e-16, No Iterations 7
smoothSolver:  Solving for p, Initial residual = 0.000293647, Final residual = 1.2358e-16, No Iterations 6
diagonal:  Solving for rho, Initial residual = 0, Final residual = 0, No Iterations 0
time step continuity errors : sum local = 2.62205e-16, global = -4.45664e-17, cumulative = -1.64891e-15
PIMPLE: Iteration 2
smoothSolver:  Solving for Ux, Initial residual = 0.000145636, Final residual = 1.24867e-17, No Iterations 1
smoothSolver:  Solving for e, Initial residual = 0.000191526, Final residual = 9.4606e-17, No Iterations 7
smoothSolver:  Solving for p, Initial residual = 2.72434e-05, Final residual = 6.49572e-17, No Iterations 6
diagonal:  Solving for rho, Initial residual = 0, Final residual = 0, No Iterations 0
time step continuity errors : sum local = 1.54152e-16, global = -3.44511e-17, cumulative = -1.68336e-15
ExecutionTime = 0.31 s  ClockTime = 1 s

Courant Number mean: 0.00928359 max: 0.295819
Time = 0.00043

PIMPLE: Iteration 1
diagonal:  Solving for rho, Initial residual = 0, Final residual = 0, No Iterations 0
smoothSolver:  Solving for Ux, Initial residual = 0.00433422, Final residual = 1.6801e-17, No Iterations 1
smoothSolver:  Solving for e, Initial residual = 0.00107114, Final residual = 6.32262e-16, No Iterations 7
smoothSolver:  Solving for p, Initial residual = 0.000293963, Final residual = 1.13987e-16, No Iterations 6
diagonal:  Solving for rho, Initial residual = 0, Final residual = 0, No Iterations 0
time step continuity errors : sum local = 2.39402e-16, global = -7.91412e-19, cumulative = -1.68415e-15
PIMPLE: Iteration 2
smoothSolver:  Solving for Ux, Initial residual = 0.000142952, Final residual = 1.56382e-17, No Iterations 1
smoothSolver:  Solving for e, Initial residual = 0.000186694, Final residual = 9.44613e-17, No Iterations 7
smoothSolver:  Solving for p, Initial residual = 2.56482e-05, Final residual = 7.64039e-16, No Iterations 5
diagonal:  Solving for rho, Initial residual = 0, Final residual = 0, No Iterations 0
time step continuity errors : sum local = 1.37988e-15, global = 4.40074e-16, cumulative = -1.24407e-15
ExecutionTime = 0.31 s  ClockTime = 1 s

Courant Number mean: 0.00950211 max: 0.295485
Time = 0.00044

PIMPLE: Iteration 1
diagonal:  Solving for rho, Initial residual = 0, Final residual = 0, No Iterations 0
smoothSolver:  Solving for Ux, Initial residual = 0.00424053, Final residual = 1.72952e-17, No Iterations 1
smoothSolver:  Solving for e, Initial residual = 0.00107341, Final residual = 6.5512e-16, No Iterations 7
smoothSolver:  Solving for p, Initial residual = 0.000294066, Final residual = 1.06573e-16, No Iterations 6
diagonal:  Solving for rho, Initial residual = 0, Final residual = 0, No Iterations 0
time step continuity errors : sum local = 2.31166e-16, global = -1.41712e-17, cumulative = -1.25825e-15
PIMPLE: Iteration 2
smoothSolver:  Solving for Ux, Initial residual = 0.000134838, Final residual = 1.42983e-17, No Iterations 1
smoothSolver:  Solving for e, Initial residual = 0.000174367, Final residual = 8.83288e-17, No Iterations 7
smoothSolver:  Solving for p, Initial residual = 2.35268e-05, Final residual = 7.14627e-16, No Iterations 5
diagonal:  Solving for rho, Initial residual = 0, Final residual = 0, No Iterations 0
time step continuity errors : sum local = 1.2968e-15, global = 3.90685e-16, cumulative = -8.6756e-16
ExecutionTime = 0.32 s  ClockTime = 1 s

Courant Number mean: 0.00972046 max: 0.295075
Time = 0.00045

PIMPLE: Iteration 1
diagonal:  Solving for rho, Initial residual = 0, Final residual = 0, No Iterations 0
smoothSolver:  Solving for Ux, Initial residual = 0.00414808, Final residual = 1.07952e-17, No Iterations 1
smoothSolver:  Solving for e, Initial residual = 0.0010728, Final residual = 6.92432e-16, No Iterations 7
smoothSolver:  Solving for p, Initial residual = 0.00029356, Final residual = 1.08387e-16, No Iterations 6
diagonal:  Solving for rho, Initial residual = 0, Final residual = 0, No Iterations 0
time step continuity errors : sum local = 2.28693e-16, global = -1.34787e-17, cumulative = -8.81039e-16
PIMPLE: Iteration 2
smoothSolver:  Solving for Ux, Initial residual = 0.000133629, Final residual = 1.56754e-17, No Iterations 1
smoothSolver:  Solving for e, Initial residual = 0.000171411, Final residual = 8.57216e-17, No Iterations 7
smoothSolver:  Solving for p, Initial residual = 2.31467e-05, Final residual = 7.50798e-16, No Iterations 5
diagonal:  Solving for rho, Initial residual = 0, Final residual = 0, No Iterations 0
time step continuity errors : sum local = 1.36093e-15, global = 2.90448e-16, cumulative = -5.90591e-16
ExecutionTime = 0.33 s  ClockTime = 1 s

Courant Number mean: 0.0099395 max: 0.294698
Time = 0.00046

PIMPLE: Iteration 1
diagonal:  Solving for rho, Initial residual = 0, Final residual = 0, No Iterations 0
smoothSolver:  Solving for Ux, Initial residual = 0.00405868, Final residual = 1.35882e-17, No Iterations 1
smoothSolver:  Solving for e, Initial residual = 0.00107035, Final residual = 7.17925e-16, No Iterations 7
smoothSolver:  Solving for p, Initial residual = 0.000293141, Final residual = 9.02741e-17, No Iterations 6
diagonal:  Solving for rho, Initial residual = 0, Final residual = 0, No Iterations 0
time step continuity errors : sum local = 1.98298e-16, global = -4.67428e-17, cumulative = -6.37334e-16
PIMPLE: Iteration 2
smoothSolver:  Solving for Ux, Initial residual = 0.00012686, Final residual = 1.5572e-17, No Iterations 1
smoothSolver:  Solving for e, Initial residual = 0.000160822, Final residual = 7.92468e-17, No Iterations 7
smoothSolver:  Solving for p, Initial residual = 2.11127e-05, Final residual = 6.02604e-17, No Iterations 6
diagonal:  Solving for rho, Initial residual = 0, Final residual = 0, No Iterations 0
time step continuity errors : sum local = 1.4515e-16, global = -3.25221e-17, cumulative = -6.69856e-16
ExecutionTime = 0.33 s  ClockTime = 1 s

Courant Number mean: 0.0101566 max: 0.29449
Time = 0.00047

PIMPLE: Iteration 1
diagonal:  Solving for rho, Initial residual = 0, Final residual = 0, No Iterations 0
smoothSolver:  Solving for Ux, Initial residual = 0.00397164, Final residual = 1.60439e-17, No Iterations 1
smoothSolver:  Solving for e, Initial residual = 0.0010705, Final residual = 6.89077e-16, No Iterations 7
smoothSolver:  Solving for p, Initial residual = 0.00029396, Final residual = 1.01149e-16, No Iterations 6
diagonal:  Solving for rho, Initial residual = 0, Final residual = 0, No Iterations 0
time step continuity errors : sum local = 2.21323e-16, global = -3.25221e-17, cumulative = -7.02378e-16
PIMPLE: Iteration 2
smoothSolver:  Solving for Ux, Initial residual = 0.000127474, Final residual = 1.49611e-17, No Iterations 1
smoothSolver:  Solving for e, Initial residual = 0.000177711, Final residual = 7.51403e-17, No Iterations 7
smoothSolver:  Solving for p, Initial residual = 2.48696e-05, Final residual = 5.92991e-17, No Iterations 6
diagonal:  Solving for rho, Initial residual = 0, Final residual = 0, No Iterations 0
time step continuity errors : sum local = 1.40278e-16, global = -3.8334e-17, cumulative = -7.40712e-16
ExecutionTime = 0.34 s  ClockTime = 1 s

Courant Number mean: 0.0103755 max: 0.294344
Time = 0.00048

PIMPLE: Iteration 1
diagonal:  Solving for rho, Initial residual = 0, Final residual = 0, No Iterations 0
smoothSolver:  Solving for Ux, Initial residual = 0.00388991, Final residual = 1.84956e-17, No Iterations 1
smoothSolver:  Solving for e, Initial residual = 0.00107037, Final residual = 6.48306e-16, No Iterations 7
smoothSolver:  Solving for p, Initial residual = 0.000295033, Final residual = 9.15369e-17, No Iterations 6
diagonal:  Solving for rho, Initial residual = 0, Final residual = 0, No Iterations 0
time step continuity errors : sum local = 2.01167e-16, global = -2.12692e-17, cumulative = -7.61981e-16
PIMPLE: Iteration 2
smoothSolver:  Solving for Ux, Initial residual = 0.000123297, Final residual = 1.22222e-17, No Iterations 1
smoothSolver:  Solving for e, Initial residual = 0.000170576, Final residual = 7.71629e-17, No Iterations 7
smoothSolver:  Solving for p, Initial residual = 2.24579e-05, Final residual = 5.43828e-17, No Iterations 6
diagonal:  Solving for rho, Initial residual = 0, Final residual = 0, No Iterations 0
time step continuity errors : sum local = 1.36939e-16, global = -3.16317e-17, cumulative = -7.93613e-16
ExecutionTime = 0.34 s  ClockTime = 1 s

Courant Number mean: 0.0105926 max: 0.294618
Time = 0.00049

PIMPLE: Iteration 1
diagonal:  Solving for rho, Initial residual = 0, Final residual = 0, No Iterations 0
smoothSolver:  Solving for Ux, Initial residual = 0.00381198, Final residual = 1.43524e-17, No Iterations 1
smoothSolver:  Solving for e, Initial residual = 0.00107119, Final residual = 6.55772e-16, No Iterations 7
smoothSolver:  Solving for p, Initial residual = 0.000295422, Final residual = 1.02069e-16, No Iterations 6
diagonal:  Solving for rho, Initial residual = 0, Final residual = 0, No Iterations 0
time step continuity errors : sum local = 2.2209e-16, global = -6.25215e-17, cumulative = -8.56134e-16
PIMPLE: Iteration 2
smoothSolver:  Solving for Ux, Initial residual = 0.000122346, Final residual = 1.53267e-17, No Iterations 1
smoothSolver:  Solving for e, Initial residual = 0.000178113, Final residual = 8.39977e-17, No Iterations 7
smoothSolver:  Solving for p, Initial residual = 2.59597e-05, Final residual = 5.48115e-17, No Iterations 6
diagonal:  Solving for rho, Initial residual = 0, Final residual = 0, No Iterations 0
time step continuity errors : sum local = 1.33031e-16, global = -2.8565e-17, cumulative = -8.84699e-16
ExecutionTime = 0.35 s  ClockTime = 1 s

Courant Number mean: 0.0108119 max: 0.294669
Time = 0.0005

PIMPLE: Iteration 1
diagonal:  Solving for rho, Initial residual = 0, Final residual = 0, No Iterations 0
smoothSolver:  Solving for Ux, Initial residual = 0.00373872, Final residual = 1.77415e-17, No Iterations 1
smoothSolver:  Solving for e, Initial residual = 0.0010724, Final residual = 6.63837e-16, No Iterations 7
smoothSolver:  Solving for p, Initial residual = 0.000294197, Final residual = 9.75577e-17, No Iterations 6
diagonal:  Solving for rho, Initial residual = 0, Final residual = 0, No Iterations 0
time step continuity errors : sum local = 2.14918e-16, global = -6.8556e-17, cumulative = -9.53256e-16
PIMPLE: Iteration 2
smoothSolver:  Solving for Ux, Initial residual = 0.000118506, Final residual = 1.34572e-17, No Iterations 1
smoothSolver:  Solving for e, Initial residual = 0.000170496, Final residual = 9.3689e-17, No Iterations 7
smoothSolver:  Solving for p, Initial residual = 2.35785e-05, Final residual = 5.45888e-16, No Iterations 5
diagonal:  Solving for rho, Initial residual = 0, Final residual = 0, No Iterations 0
time step continuity errors : sum local = 9.93222e-16, global = -2.47316e-19, cumulative = -9.53503e-16
ExecutionTime = 0.36 s  ClockTime = 1 s

Courant Number mean: 0.0110293 max: 0.294522
Time = 0.00051

PIMPLE: Iteration 1
diagonal:  Solving for rho, Initial residual = 0, Final residual = 0, No Iterations 0
smoothSolver:  Solving for Ux, Initial residual = 0.00366757, Final residual = 1.58145e-17, No Iterations 1
smoothSolver:  Solving for e, Initial residual = 0.00107213, Final residual = 6.85278e-16, No Iterations 7
smoothSolver:  Solving for p, Initial residual = 0.000294249, Final residual = 9.65725e-17, No Iterations 6
diagonal:  Solving for rho, Initial residual = 0, Final residual = 0, No Iterations 0
time step continuity errors : sum local = 2.12667e-16, global = -2.59929e-17, cumulative = -9.79496e-16
PIMPLE: Iteration 2
smoothSolver:  Solving for Ux, Initial residual = 0.00011496, Final residual = 1.70752e-17, No Iterations 1
smoothSolver:  Solving for e, Initial residual = 0.000169704, Final residual = 9.50194e-17, No Iterations 7
smoothSolver:  Solving for p, Initial residual = 2.40119e-05, Final residual = 7.15751e-16, No Iterations 5
diagonal:  Solving for rho, Initial residual = 0, Final residual = 0, No Iterations 0
time step continuity errors : sum local = 1.28926e-15, global = 6.7819e-16, cumulative = -3.01305e-16
ExecutionTime = 0.36 s  ClockTime = 1 s

Courant Number mean: 0.0112494 max: 0.294281
Time = 0.00052

PIMPLE: Iteration 1
diagonal:  Solving for rho, Initial residual = 0, Final residual = 0, No Iterations 0
smoothSolver:  Solving for Ux, Initial residual = 0.00360089, Final residual = 1.77423e-17, No Iterations 1
smoothSolver:  Solving for e, Initial residual = 0.00107328, Final residual = 7.12356e-16, No Iterations 7
smoothSolver:  Solving for p, Initial residual = 0.000293997, Final residual = 8.61987e-17, No Iterations 6
diagonal:  Solving for rho, Initial residual = 0, Final residual = 0, No Iterations 0
time step continuity errors : sum local = 1.94687e-16, global = -4.1648e-17, cumulative = -3.42953e-16
PIMPLE: Iteration 2
smoothSolver:  Solving for Ux, Initial residual = 0.000112303, Final residual = 1.65274e-17, No Iterations 1
smoothSolver:  Solving for e, Initial residual = 0.000163297, Final residual = 9.22641e-17, No Iterations 7
smoothSolver:  Solving for p, Initial residual = 2.11366e-05, Final residual = 7.2802e-16, No Iterations 5
diagonal:  Solving for rho, Initial residual = 0, Final residual = 0, No Iterations 0
time step continuity errors : sum local = 1.30598e-15, global = 4.40717e-16, cumulative = 9.77641e-17
ExecutionTime = 0.37 s  ClockTime = 1 s

Courant Number mean: 0.0114678 max: 0.294074
Time = 0.00053

PIMPLE: Iteration 1
diagonal:  Solving for rho, Initial residual = 0, Final residual = 0, No Iterations 0
smoothSolver:  Solving for Ux, Initial residual = 0.00353434, Final residual = 1.41072e-17, No Iterations 1
smoothSolver:  Solving for e, Initial residual = 0.00107361, Final residual = 7.41126e-16, No Iterations 7
smoothSolver:  Solving for p, Initial residual = 0.000293755, Final residual = 8.74147e-17, No Iterations 6
diagonal:  Solving for rho, Initial residual = 0, Final residual = 0, No Iterations 0
time step continuity errors : sum local = 1.98174e-16, global = -4.44427e-17, cumulative = 5.33214e-17
PIMPLE: Iteration 2
smoothSolver:  Solving for Ux, Initial residual = 0.00010838, Final residual = 1.70651e-17, No Iterations 1
smoothSolver:  Solving for e, Initial residual = 0.000157801, Final residual = 9.34451e-17, No Iterations 7
smoothSolver:  Solving for p, Initial residual = 2.14308e-05, Final residual = 5.71728e-17, No Iterations 6
diagonal:  Solving for rho, Initial residual = 0, Final residual = 0, No Iterations 0
time step continuity errors : sum local = 1.3961e-16, global = -3.03952e-17, cumulative = 2.29262e-17
ExecutionTime = 0.37 s  ClockTime = 1 s

Courant Number mean: 0.0116869 max: 0.294059
Time = 0.00054

PIMPLE: Iteration 1
diagonal:  Solving for rho, Initial residual = 0, Final residual = 0, No Iterations 0
smoothSolver:  Solving for Ux, Initial residual = 0.00347026, Final residual = 1.55291e-17, No Iterations 1
smoothSolver:  Solving for e, Initial residual = 0.00107338, Final residual = 7.48385e-16, No Iterations 7
smoothSolver:  Solving for p, Initial residual = 0.000294122, Final residual = 8.81095e-17, No Iterations 6
diagonal:  Solving for rho, Initial residual = 0, Final residual = 0, No Iterations 0
time step continuity errors : sum local = 1.99807e-16, global = -3.36597e-17, cumulative = -1.07335e-17
PIMPLE: Iteration 2
smoothSolver:  Solving for Ux, Initial residual = 0.000108051, Final residual = 1.49933e-17, No Iterations 1
smoothSolver:  Solving for e, Initial residual = 0.000165614, Final residual = 8.527e-17, No Iterations 7
smoothSolver:  Solving for p, Initial residual = 2.1947e-05, Final residual = 5.66565e-17, No Iterations 6
diagonal:  Solving for rho, Initial residual = 0, Final residual = 0, No Iterations 0
time step continuity errors : sum local = 1.36939e-16, global = -2.76252e-17, cumulative = -3.83587e-17
ExecutionTime = 0.38 s  ClockTime = 1 s

Courant Number mean: 0.0119055 max: 0.294062
Time = 0.00055

PIMPLE: Iteration 1
diagonal:  Solving for rho, Initial residual = 0, Final residual = 0, No Iterations 0
smoothSolver:  Solving for Ux, Initial residual = 0.00340765, Final residual = 1.47888e-17, No Iterations 1
smoothSolver:  Solving for e, Initial residual = 0.00107293, Final residual = 7.10291e-16, No Iterations 7
smoothSolver:  Solving for p, Initial residual = 0.000295018, Final residual = 1.04747e-16, No Iterations 6
diagonal:  Solving for rho, Initial residual = 0, Final residual = 0, No Iterations 0
time step continuity errors : sum local = 2.29015e-16, global = -3.85813e-17, cumulative = -7.69401e-17
PIMPLE: Iteration 2
smoothSolver:  Solving for Ux, Initial residual = 0.000103686, Final residual = 1.50622e-17, No Iterations 1
smoothSolver:  Solving for e, Initial residual = 0.000165476, Final residual = 9.17343e-17, No Iterations 7
smoothSolver:  Solving for p, Initial residual = 2.31516e-05, Final residual = 5.77112e-17, No Iterations 6
diagonal:  Solving for rho, Initial residual = 0, Final residual = 0, No Iterations 0
time step continuity errors : sum local = 1.42083e-16, global = -3.30167e-17, cumulative = -1.09957e-16
ExecutionTime = 0.39 s  ClockTime = 1 s

Courant Number mean: 0.0121243 max: 0.294061
Time = 0.00056

PIMPLE: Iteration 1
diagonal:  Solving for rho, Initial residual = 0, Final residual = 0, No Iterations 0
smoothSolver:  Solving for Ux, Initial residual = 0.00334763, Final residual = 1.49152e-17, No Iterations 1
smoothSolver:  Solving for e, Initial residual = 0.0010729, Final residual = 6.94103e-16, No Iterations 7
smoothSolver:  Solving for p, Initial residual = 0.00029594, Final residual = 1.07426e-16, No Iterations 6
diagonal:  Solving for rho, Initial residual = 0, Final residual = 0, No Iterations 0
time step continuity errors : sum local = 2.35222e-16, global = -3.66275e-17, cumulative = -1.46584e-16
PIMPLE: Iteration 2
smoothSolver:  Solving for Ux, Initial residual = 0.000104425, Final residual = 1.56547e-17, No Iterations 1
smoothSolver:  Solving for e, Initial residual = 0.000172008, Final residual = 8.75544e-17, No Iterations 7
smoothSolver:  Solving for p, Initial residual = 2.40023e-05, Final residual = 5.58033e-17, No Iterations 6
diagonal:  Solving for rho, Initial residual = 0, Final residual = 0, No Iterations 0
time step continuity errors : sum local = 1.39684e-16, global = -3.38329e-17, cumulative = -1.80417e-16
ExecutionTime = 0.39 s  ClockTime = 1 s

Courant Number mean: 0.0123432 max: 0.294177
Time = 0.00057

PIMPLE: Iteration 1
diagonal:  Solving for rho, Initial residual = 0, Final residual = 0, No Iterations 0
smoothSolver:  Solving for Ux, Initial residual = 0.0032911, Final residual = 1.64898e-17, No Iterations 1
smoothSolver:  Solving for e, Initial residual = 0.00107416, Final residual = 7.00587e-16, No Iterations 7
smoothSolver:  Solving for p, Initial residual = 0.000295566, Final residual = 1.11995e-16, No Iterations 6
diagonal:  Solving for rho, Initial residual = 0, Final residual = 0, No Iterations 0
time step continuity errors : sum local = 2.4232e-16, global = -4.5704e-17, cumulative = -2.26121e-16
PIMPLE: Iteration 2
smoothSolver:  Solving for Ux, Initial residual = 0.000100468, Final residual = 1.65588e-17, No Iterations 1
smoothSolver:  Solving for e, Initial residual = 0.000160277, Final residual = 9.97043e-17, No Iterations 7
smoothSolver:  Solving for p, Initial residual = 2.27062e-05, Final residual = 5.44621e-17, No Iterations 6
diagonal:  Solving for rho, Initial residual = 0, Final residual = 0, No Iterations 0
time step continuity errors : sum local = 1.25389e-16, global = -3.59103e-17, cumulative = -2.62032e-16
ExecutionTime = 0.4 s  ClockTime = 1 s

Courant Number mean: 0.0125614 max: 0.294143
Time = 0.00058

PIMPLE: Iteration 1
diagonal:  Solving for rho, Initial residual = 0, Final residual = 0, No Iterations 0
smoothSolver:  Solving for Ux, Initial residual = 0.00323652, Final residual = 1.34234e-17, No Iterations 1
smoothSolver:  Solving for e, Initial residual = 0.00107459, Final residual = 7.10001e-16, No Iterations 7
smoothSolver:  Solving for p, Initial residual = 0.000294669, Final residual = 9.54232e-17, No Iterations 6
diagonal:  Solving for rho, Initial residual = 0, Final residual = 0, No Iterations 0
time step continuity errors : sum local = 2.13063e-16, global = -1.93649e-17, cumulative = -2.81396e-16
PIMPLE: Iteration 2
smoothSolver:  Solving for Ux, Initial residual = 9.94444e-05, Final residual = 1.55901e-17, No Iterations 1
smoothSolver:  Solving for e, Initial residual = 0.000168461, Final residual = 1.03411e-16, No Iterations 7
smoothSolver:  Solving for p, Initial residual = 2.28072e-05, Final residual = 6.7471e-16, No Iterations 5
diagonal:  Solving for rho, Initial residual = 0, Final residual = 0, No Iterations 0
time step continuity errors : sum local = 1.21971e-15, global = -1.27764e-16, cumulative = -4.0916e-16
ExecutionTime = 0.41 s  ClockTime = 1 s

Courant Number mean: 0.0127809 max: 0.294003
Time = 0.00059

PIMPLE: Iteration 1
diagonal:  Solving for rho, Initial residual = 0, Final residual = 0, No Iterations 0
smoothSolver:  Solving for Ux, Initial residual = 0.0031845, Final residual = 1.50992e-17, No Iterations 1
smoothSolver:  Solving for e, Initial residual = 0.00107587, Final residual = 7.36255e-16, No Iterations 7
smoothSolver:  Solving for p, Initial residual = 0.000295068, Final residual = 9.24078e-17, No Iterations 6
diagonal:  Solving for rho, Initial residual = 0, Final residual = 0, No Iterations 0
time step continuity errors : sum local = 2.0369e-16, global = -5.14418e-17, cumulative = -4.60602e-16
PIMPLE: Iteration 2
smoothSolver:  Solving for Ux, Initial residual = 9.64723e-05, Final residual = 1.97526e-17, No Iterations 1
smoothSolver:  Solving for e, Initial residual = 0.000153597, Final residual = 1.0689e-16, No Iterations 7
smoothSolver:  Solving for p, Initial residual = 1.98724e-05, Final residual = 7.30378e-16, No Iterations 5
diagonal:  Solving for rho, Initial residual = 0, Final residual = 0, No Iterations 0
time step continuity errors : sum local = 1.31963e-15, global = 7.62229e-17, cumulative = -3.84379e-16
ExecutionTime = 0.42 s  ClockTime = 1 s

Courant Number mean: 0.0129991 max: 0.293963
Time = 0.0006

PIMPLE: Iteration 1
diagonal:  Solving for rho, Initial residual = 0, Final residual = 0, No Iterations 0
smoothSolver:  Solving for Ux, Initial residual = 0.00313369, Final residual = 1.68446e-17, No Iterations 1
smoothSolver:  Solving for e, Initial residual = 0.00107624, Final residual = 7.58811e-16, No Iterations 7
smoothSolver:  Solving for p, Initial residual = 0.00029472, Final residual = 9.08563e-17, No Iterations 6
diagonal:  Solving for rho, Initial residual = 0, Final residual = 0, No Iterations 0
time step continuity errors : sum local = 1.95182e-16, global = -4.21921e-17, cumulative = -4.26571e-16
PIMPLE: Iteration 2
smoothSolver:  Solving for Ux, Initial residual = 9.49954e-05, Final residual = 1.62026e-17, No Iterations 1
smoothSolver:  Solving for e, Initial residual = 0.000157818, Final residual = 1.02237e-16, No Iterations 7
smoothSolver:  Solving for p, Initial residual = 2.12636e-05, Final residual = 8.71506e-16, No Iterations 5
diagonal:  Solving for rho, Initial residual = 0, Final residual = 0, No Iterations 0
time step continuity errors : sum local = 1.55253e-15, global = -3.15155e-16, cumulative = -7.41726e-16
ExecutionTime = 0.43 s  ClockTime = 1 s

Courant Number mean: 0.0132189 max: 0.293916
Time = 0.00061

PIMPLE: Iteration 1
diagonal:  Solving for rho, Initial residual = 0, Final residual = 0, No Iterations 0
smoothSolver:  Solving for Ux, Initial residual = 0.00308441, Final residual = 1.61103e-17, No Iterations 1
smoothSolver:  Solving for e, Initial residual = 0.00107526, Final residual = 7.92595e-16, No Iterations 7
smoothSolver:  Solving for p, Initial residual = 0.000294518, Final residual = 9.40411e-17, No Iterations 6
diagonal:  Solving for rho, Initial residual = 0, Final residual = 0, No Iterations 0
time step continuity errors : sum local = 2.10837e-16, global = -4.84492e-17, cumulative = -7.90175e-16
PIMPLE: Iteration 2
smoothSolver:  Solving for Ux, Initial residual = 9.34255e-05, Final residual = 1.52215e-17, No Iterations 1
smoothSolver:  Solving for e, Initial residual = 0.000150907, Final residual = 9.6309e-17, No Iterations 7
smoothSolver:  Solving for p, Initial residual = 1.94228e-05, Final residual = 5.98598e-17, No Iterations 6
diagonal:  Solving for rho, Initial residual = 0, Final residual = 0, No Iterations 0
time step continuity errors : sum local = 1.45125e-16, global = -2.54736e-17, cumulative = -8.15649e-16
ExecutionTime = 0.43 s  ClockTime = 1 s

Courant Number mean: 0.0134367 max: 0.293897
Time = 0.00062

PIMPLE: Iteration 1
diagonal:  Solving for rho, Initial residual = 0, Final residual = 0, No Iterations 0
smoothSolver:  Solving for Ux, Initial residual = 0.00303532, Final residual = 1.52887e-17, No Iterations 1
smoothSolver:  Solving for e, Initial residual = 0.00107435, Final residual = 7.75699e-16, No Iterations 7
smoothSolver:  Solving for p, Initial residual = 0.000294999, Final residual = 1.03632e-16, No Iterations 6
diagonal:  Solving for rho, Initial residual = 0, Final residual = 0, No Iterations 0
time step continuity errors : sum local = 2.26715e-16, global = -4.28104e-17, cumulative = -8.58459e-16
PIMPLE: Iteration 2
smoothSolver:  Solving for Ux, Initial residual = 9.14419e-05, Final residual = 1.48096e-17, No Iterations 1
smoothSolver:  Solving for e, Initial residual = 0.000159403, Final residual = 9.4418e-17, No Iterations 7
smoothSolver:  Solving for p, Initial residual = 2.22467e-05, Final residual = 5.88061e-17, No Iterations 6
diagonal:  Solving for rho, Initial residual = 0, Final residual = 0, No Iterations 0
time step continuity errors : sum local = 1.4285e-16, global = -3.23984e-17, cumulative = -8.90858e-16
ExecutionTime = 0.44 s  ClockTime = 1 s

Courant Number mean: 0.0136566 max: 0.293901
Time = 0.00063

PIMPLE: Iteration 1
diagonal:  Solving for rho, Initial residual = 0, Final residual = 0, No Iterations 0
smoothSolver:  Solving for Ux, Initial residual = 0.0029883, Final residual = 1.67602e-17, No Iterations 1
[...]
Time = 0.00685

PIMPLE: Iteration 1
diagonal:  Solving for rho, Initial residual = 0, Final residual = 0, No Iterations 0
smoothSolver:  Solving for Ux, Initial residual = 0.000523, Final residual = 3.08412e-17, No Iterations 1
smoothSolver:  Solving for e, Initial residual = 0.000933031, Final residual = 8.56408e-16, No Iterations 7
smoothSolver:  Solving for p, Initial residual = 0.000436904, Final residual = 1.33988e-16, No Iterations 6
diagonal:  Solving for rho, Initial residual = 0, Final residual = 0, No Iterations 0
time step continuity errors : sum local = 2.08586e-16, global = -5.90591e-17, cumulative = 2.23244e-13
PIMPLE: Iteration 2
smoothSolver:  Solving for Ux, Initial residual = 1.31544e-05, Final residual = 3.31898e-17, No Iterations 1
smoothSolver:  Solving for e, Initial residual = 9.58609e-05, Final residual = 8.43939e-17, No Iterations 7
smoothSolver:  Solving for p, Initial residual = 2.22179e-05, Final residual = 8.96498e-16, No Iterations 5
diagonal:  Solving for rho, Initial residual = 0, Final residual = 0, No Iterations 0
time step continuity errors : sum local = 1.09408e-15, global = 6.12948e-16, cumulative = 2.23857e-13
ExecutionTime = 4.64 s  ClockTime = 5 s

Courant Number mean: 0.150619 max: 0.293316
Time = 0.00686

PIMPLE: Iteration 1
diagonal:  Solving for rho, Initial residual = 0, Final residual = 0, No Iterations 0
smoothSolver:  Solving for Ux, Initial residual = 0.000522938, Final residual = 2.83609e-17, No Iterations 1
smoothSolver:  Solving for e, Initial residual = 0.000932897, Final residual = 8.54375e-16, No Iterations 7
smoothSolver:  Solving for p, Initial residual = 0.000437274, Final residual = 1.29626e-16, No Iterations 6
diagonal:  Solving for rho, Initial residual = 0, Final residual = 0, No Iterations 0
time step continuity errors : sum local = 2.04555e-16, global = -7.28841e-17, cumulative = 2.23784e-13
PIMPLE: Iteration 2
smoothSolver:  Solving for Ux, Initial residual = 1.31063e-05, Final residual = 2.87631e-17, No Iterations 1
smoothSolver:  Solving for e, Initial residual = 9.05628e-05, Final residual = 8.4437e-17, No Iterations 7
smoothSolver:  Solving for p, Initial residual = 1.98668e-05, Final residual = 9.67797e-16, No Iterations 5
diagonal:  Solving for rho, Initial residual = 0, Final residual = 0, No Iterations 0
time step continuity errors : sum local = 1.1792e-15, global = 8.19804e-16, cumulative = 2.24604e-13
ExecutionTime = 4.65 s  ClockTime = 5 s

Courant Number mean: 0.150838 max: 0.293316
Time = 0.00687

PIMPLE: Iteration 1
diagonal:  Solving for rho, Initial residual = 0, Final residual = 0, No Iterations 0
smoothSolver:  Solving for Ux, Initial residual = 0.00052276, Final residual = 2.93371e-17, No Iterations 1
smoothSolver:  Solving for e, Initial residual = 0.000932546, Final residual = 8.55859e-16, No Iterations 7
smoothSolver:  Solving for p, Initial residual = 0.000437621, Final residual = 1.31918e-16, No Iterations 6
diagonal:  Solving for rho, Initial residual = 0, Final residual = 0, No Iterations 0
time step continuity errors : sum local = 2.07053e-16, global = -5.84161e-17, cumulative = 2.24545e-13
PIMPLE: Iteration 2
smoothSolver:  Solving for Ux, Initial residual = 1.30795e-05, Final residual = 3.10906e-17, No Iterations 1
smoothSolver:  Solving for e, Initial residual = 9.49938e-05, Final residual = 8.49136e-17, No Iterations 7
smoothSolver:  Solving for p, Initial residual = 2.23571e-05, Final residual = 9.69704e-16, No Iterations 5
diagonal:  Solving for rho, Initial residual = 0, Final residual = 0, No Iterations 0
time step continuity errors : sum local = 1.17861e-15, global = 8.29944e-16, cumulative = 2.25375e-13
ExecutionTime = 4.66 s  ClockTime = 5 s

Courant Number mean: 0.151058 max: 0.293316
Time = 0.00688

PIMPLE: Iteration 1
diagonal:  Solving for rho, Initial residual = 0, Final residual = 0, No Iterations 0
smoothSolver:  Solving for Ux, Initial residual = 0.000522712, Final residual = 3.06884e-17, No Iterations 1
smoothSolver:  Solving for e, Initial residual = 0.000932466, Final residual = 8.52657e-16, No Iterations 7
smoothSolver:  Solving for p, Initial residual = 0.000437999, Final residual = 1.30737e-16, No Iterations 6
diagonal:  Solving for rho, Initial residual = 0, Final residual = 0, No Iterations 0
time step continuity errors : sum local = 2.09279e-16, global = -5.71795e-17, cumulative = 2.25318e-13
PIMPLE: Iteration 2
smoothSolver:  Solving for Ux, Initial residual = 1.31855e-05, Final residual = 3.0376e-17, No Iterations 1
smoothSolver:  Solving for e, Initial residual = 9.44413e-05, Final residual = 8.27927e-17, No Iterations 7
smoothSolver:  Solving for p, Initial residual = 2.05912e-05, Final residual = 9.10597e-16, No Iterations 5
diagonal:  Solving for rho, Initial residual = 0, Final residual = 0, No Iterations 0
time step continuity errors : sum local = 1.10419e-15, global = 7.61017e-16, cumulative = 2.26079e-13
ExecutionTime = 4.66 s  ClockTime = 5 s

Courant Number mean: 0.151278 max: 0.293316
Time = 0.00689

PIMPLE: Iteration 1
diagonal:  Solving for rho, Initial residual = 0, Final residual = 0, No Iterations 0
smoothSolver:  Solving for Ux, Initial residual = 0.000522548, Final residual = 3.23712e-17, No Iterations 1
smoothSolver:  Solving for e, Initial residual = 0.000932117, Final residual = 8.52694e-16, No Iterations 7
smoothSolver:  Solving for p, Initial residual = 0.000438348, Final residual = 1.34213e-16, No Iterations 6
diagonal:  Solving for rho, Initial residual = 0, Final residual = 0, No Iterations 0
time step continuity errors : sum local = 2.14448e-16, global = -7.97595e-17, cumulative = 2.25999e-13
PIMPLE: Iteration 2
smoothSolver:  Solving for Ux, Initial residual = 1.29749e-05, Final residual = 3.18819e-17, No Iterations 1
smoothSolver:  Solving for e, Initial residual = 9.3187e-05, Final residual = 8.67064e-17, No Iterations 7
smoothSolver:  Solving for p, Initial residual = 2.20577e-05, Final residual = 9.24981e-16, No Iterations 5
diagonal:  Solving for rho, Initial residual = 0, Final residual = 0, No Iterations 0
time step continuity errors : sum local = 1.12296e-15, global = 7.82162e-16, cumulative = 2.26781e-13
ExecutionTime = 4.67 s  ClockTime = 5 s

Courant Number mean: 0.151498 max: 0.293316
Time = 0.0069

PIMPLE: Iteration 1
diagonal:  Solving for rho, Initial residual = 0, Final residual = 0, No Iterations 0
smoothSolver:  Solving for Ux, Initial residual = 0.000522489, Final residual = 3.17161e-17, No Iterations 1
smoothSolver:  Solving for e, Initial residual = 0.000932013, Final residual = 8.56487e-16, No Iterations 7
smoothSolver:  Solving for p, Initial residual = 0.000438733, Final residual = 1.28773e-16, No Iterations 6
diagonal:  Solving for rho, Initial residual = 0, Final residual = 0, No Iterations 0
time step continuity errors : sum local = 2.03887e-16, global = -7.03367e-17, cumulative = 2.26711e-13
PIMPLE: Iteration 2
smoothSolver:  Solving for Ux, Initial residual = 1.32076e-05, Final residual = 3.26618e-17, No Iterations 1
smoothSolver:  Solving for e, Initial residual = 9.59865e-05, Final residual = 8.55878e-17, No Iterations 7
smoothSolver:  Solving for p, Initial residual = 2.13589e-05, Final residual = 9.72297e-16, No Iterations 5
diagonal:  Solving for rho, Initial residual = 0, Final residual = 0, No Iterations 0
time step continuity errors : sum local = 1.1774e-15, global = 8.29523e-16, cumulative = 2.27541e-13
ExecutionTime = 4.68 s  ClockTime = 5 s

Courant Number mean: 0.151718 max: 0.293316
Time = 0.00691

PIMPLE: Iteration 1
diagonal:  Solving for rho, Initial residual = 0, Final residual = 0, No Iterations 0
smoothSolver:  Solving for Ux, Initial residual = 0.000522376, Final residual = 2.96381e-17, No Iterations 1
smoothSolver:  Solving for e, Initial residual = 0.000931776, Final residual = 8.4921e-16, No Iterations 7
smoothSolver:  Solving for p, Initial residual = 0.000439089, Final residual = 1.27852e-16, No Iterations 6
diagonal:  Solving for rho, Initial residual = 0, Final residual = 0, No Iterations 0
time step continuity errors : sum local = 1.98199e-16, global = -5.7229e-17, cumulative = 2.27483e-13
PIMPLE: Iteration 2
smoothSolver:  Solving for Ux, Initial residual = 1.28314e-05, Final residual = 2.99125e-17, No Iterations 1
smoothSolver:  Solving for e, Initial residual = 9.0318e-05, Final residual = 8.68236e-17, No Iterations 7
smoothSolver:  Solving for p, Initial residual = 2.11742e-05, Final residual = 9.10699e-16, No Iterations 5
diagonal:  Solving for rho, Initial residual = 0, Final residual = 0, No Iterations 0
time step continuity errors : sum local = 1.10763e-15, global = 7.67571e-16, cumulative = 2.28251e-13
ExecutionTime = 4.68 s  ClockTime = 5 s

Courant Number mean: 0.151938 max: 0.293315
Time = 0.00692

PIMPLE: Iteration 1
diagonal:  Solving for rho, Initial residual = 0, Final residual = 0, No Iterations 0
smoothSolver:  Solving for Ux, Initial residual = 0.000522277, Final residual = 3.14892e-17, No Iterations 1
smoothSolver:  Solving for e, Initial residual = 0.000931595, Final residual = 8.53766e-16, No Iterations 7
smoothSolver:  Solving for p, Initial residual = 0.000439472, Final residual = 1.31362e-16, No Iterations 6
diagonal:  Solving for rho, Initial residual = 0, Final residual = 0, No Iterations 0
time step continuity errors : sum local = 2.07177e-16, global = -5.7501e-17, cumulative = 2.28193e-13
PIMPLE: Iteration 2
smoothSolver:  Solving for Ux, Initial residual = 1.31853e-05, Final residual = 3.13056e-17, No Iterations 1
smoothSolver:  Solving for e, Initial residual = 9.5977e-05, Final residual = 8.55571e-17, No Iterations 7
smoothSolver:  Solving for p, Initial residual = 2.18454e-05, Final residual = 9.02632e-16, No Iterations 5
diagonal:  Solving for rho, Initial residual = 0, Final residual = 0, No Iterations 0
time step continuity errors : sum local = 1.09759e-15, global = 7.45164e-16, cumulative = 2.28939e-13
ExecutionTime = 4.69 s  ClockTime = 5 s

Courant Number mean: 0.152159 max: 0.293315
Time = 0.00693

PIMPLE: Iteration 1
diagonal:  Solving for rho, Initial residual = 0, Final residual = 0, No Iterations 0
smoothSolver:  Solving for Ux, Initial residual = 0.000522196, Final residual = 3.22954e-17, No Iterations 1
smoothSolver:  Solving for e, Initial residual = 0.000931397, Final residual = 8.49849e-16, No Iterations 7
smoothSolver:  Solving for p, Initial residual = 0.000439835, Final residual = 1.30775e-16, No Iterations 6
diagonal:  Solving for rho, Initial residual = 0, Final residual = 0, No Iterations 0
time step continuity errors : sum local = 2.14992e-16, global = -6.24473e-17, cumulative = 2.28876e-13
PIMPLE: Iteration 2
smoothSolver:  Solving for Ux, Initial residual = 1.28992e-05, Final residual = 3.1373e-17, No Iterations 1
smoothSolver:  Solving for e, Initial residual = 8.75083e-05, Final residual = 8.55828e-17, No Iterations 7
smoothSolver:  Solving for p, Initial residual = 2.01063e-05, Final residual = 8.99971e-16, No Iterations 5
diagonal:  Solving for rho, Initial residual = 0, Final residual = 0, No Iterations 0
time step continuity errors : sum local = 1.09764e-15, global = 7.44125e-16, cumulative = 2.2962e-13
ExecutionTime = 4.69 s  ClockTime = 5 s

Courant Number mean: 0.152378 max: 0.293315
Time = 0.00694

PIMPLE: Iteration 1
diagonal:  Solving for rho, Initial residual = 0, Final residual = 0, No Iterations 0
smoothSolver:  Solving for Ux, Initial residual = 0.00052206, Final residual = 3.14176e-17, No Iterations 1
smoothSolver:  Solving for e, Initial residual = 0.000931126, Final residual = 8.47133e-16, No Iterations 7
smoothSolver:  Solving for p, Initial residual = 0.0004402, Final residual = 1.34882e-16, No Iterations 6
diagonal:  Solving for rho, Initial residual = 0, Final residual = 0, No Iterations 0
time step continuity errors : sum local = 2.09848e-16, global = -5.40881e-17, cumulative = 2.29566e-13
PIMPLE: Iteration 2
smoothSolver:  Solving for Ux, Initial residual = 1.31432e-05, Final residual = 3.22017e-17, No Iterations 1
smoothSolver:  Solving for e, Initial residual = 9.57601e-05, Final residual = 8.66979e-17, No Iterations 7
smoothSolver:  Solving for p, Initial residual = 2.22966e-05, Final residual = 8.71282e-16, No Iterations 5
diagonal:  Solving for rho, Initial residual = 0, Final residual = 0, No Iterations 0
time step continuity errors : sum local = 1.05614e-15, global = 7.39129e-16, cumulative = 2.30305e-13
ExecutionTime = 4.7 s  ClockTime = 5 s

Courant Number mean: 0.152599 max: 0.293315
Time = 0.00695

PIMPLE: Iteration 1
diagonal:  Solving for rho, Initial residual = 0, Final residual = 0, No Iterations 0
smoothSolver:  Solving for Ux, Initial residual = 0.000522008, Final residual = 3.20533e-17, No Iterations 1
smoothSolver:  Solving for e, Initial residual = 0.000930997, Final residual = 8.50502e-16, No Iterations 7
smoothSolver:  Solving for p, Initial residual = 0.000440572, Final residual = 1.32834e-16, No Iterations 6
diagonal:  Solving for rho, Initial residual = 0, Final residual = 0, No Iterations 0
time step continuity errors : sum local = 2.07622e-16, global = -5.99247e-17, cumulative = 2.30245e-13
PIMPLE: Iteration 2
smoothSolver:  Solving for Ux, Initial residual = 1.30446e-05, Final residual = 3.21611e-17, No Iterations 1
smoothSolver:  Solving for e, Initial residual = 8.89398e-05, Final residual = 8.29448e-17, No Iterations 7
smoothSolver:  Solving for p, Initial residual = 1.98333e-05, Final residual = 9.21546e-16, No Iterations 5
diagonal:  Solving for rho, Initial residual = 0, Final residual = 0, No Iterations 0
time step continuity errors : sum local = 1.11485e-15, global = 7.5199e-16, cumulative = 2.30997e-13
ExecutionTime = 4.7 s  ClockTime = 5 s

Courant Number mean: 0.152818 max: 0.293315
Time = 0.00696

PIMPLE: Iteration 1
diagonal:  Solving for rho, Initial residual = 0, Final residual = 0, No Iterations 0
smoothSolver:  Solving for Ux, Initial residual = 0.000521849, Final residual = 2.91e-17, No Iterations 1
smoothSolver:  Solving for e, Initial residual = 0.000930646, Final residual = 8.49443e-16, No Iterations 7
smoothSolver:  Solving for p, Initial residual = 0.000440929, Final residual = 1.3179e-16, No Iterations 6
diagonal:  Solving for rho, Initial residual = 0, Final residual = 0, No Iterations 0
time step continuity errors : sum local = 2.16352e-16, global = -6.60334e-17, cumulative = 2.30931e-13
PIMPLE: Iteration 2
smoothSolver:  Solving for Ux, Initial residual = 1.30741e-05, Final residual = 2.9785e-17, No Iterations 1
smoothSolver:  Solving for e, Initial residual = 9.51064e-05, Final residual = 8.57542e-17, No Iterations 7
smoothSolver:  Solving for p, Initial residual = 2.25242e-05, Final residual = 9.81435e-16, No Iterations 5
diagonal:  Solving for rho, Initial residual = 0, Final residual = 0, No Iterations 0
time step continuity errors : sum local = 1.18541e-15, global = 8.25269e-16, cumulative = 2.31757e-13
ExecutionTime = 4.71 s  ClockTime = 5 s

Courant Number mean: 0.153039 max: 0.293315
Time = 0.00697

PIMPLE: Iteration 1
diagonal:  Solving for rho, Initial residual = 0, Final residual = 0, No Iterations 0
smoothSolver:  Solving for Ux, Initial residual = 0.000521813, Final residual = 3.09478e-17, No Iterations 1
smoothSolver:  Solving for e, Initial residual = 0.000930549, Final residual = 8.51112e-16, No Iterations 7
smoothSolver:  Solving for p, Initial residual = 0.000441312, Final residual = 1.31997e-16, No Iterations 6
diagonal:  Solving for rho, Initial residual = 0, Final residual = 0, No Iterations 0
time step continuity errors : sum local = 2.10763e-16, global = -6.01473e-17, cumulative = 2.31696e-13
PIMPLE: Iteration 2
smoothSolver:  Solving for Ux, Initial residual = 1.3139e-05, Final residual = 2.9574e-17, No Iterations 1
smoothSolver:  Solving for e, Initial residual = 9.30807e-05, Final residual = 8.60504e-17, No Iterations 7
smoothSolver:  Solving for p, Initial residual = 2.03731e-05, Final residual = 9.73128e-16, No Iterations 5
diagonal:  Solving for rho, Initial residual = 0, Final residual = 0, No Iterations 0
time step continuity errors : sum local = 1.18242e-15, global = 8.3024e-16, cumulative = 2.32527e-13
ExecutionTime = 4.72 s  ClockTime = 5 s

Courant Number mean: 0.153258 max: 0.293314
Time = 0.00698

PIMPLE: Iteration 1
diagonal:  Solving for rho, Initial residual = 0, Final residual = 0, No Iterations 0
smoothSolver:  Solving for Ux, Initial residual = 0.000521644, Final residual = 3.17042e-17, No Iterations 1
smoothSolver:  Solving for e, Initial residual = 0.000930186, Final residual = 8.52506e-16, No Iterations 7
smoothSolver:  Solving for p, Initial residual = 0.000441661, Final residual = 1.31665e-16, No Iterations 6
diagonal:  Solving for rho, Initial residual = 0, Final residual = 0, No Iterations 0
time step continuity errors : sum local = 2.02033e-16, global = -6.03699e-17, cumulative = 2.32466e-13
PIMPLE: Iteration 2
smoothSolver:  Solving for Ux, Initial residual = 1.29902e-05, Final residual = 3.22673e-17, No Iterations 1
smoothSolver:  Solving for e, Initial residual = 9.36663e-05, Final residual = 8.67054e-17, No Iterations 7
smoothSolver:  Solving for p, Initial residual = 2.24487e-05, Final residual = 9.19435e-16, No Iterations 5
diagonal:  Solving for rho, Initial residual = 0, Final residual = 0, No Iterations 0
time step continuity errors : sum local = 1.11057e-15, global = 7.64083e-16, cumulative = 2.3323e-13
ExecutionTime = 4.72 s  ClockTime = 5 s

Courant Number mean: 0.153479 max: 0.293314
Time = 0.00699

PIMPLE: Iteration 1
diagonal:  Solving for rho, Initial residual = 0, Final residual = 0, No Iterations 0
smoothSolver:  Solving for Ux, Initial residual = 0.000521613, Final residual = 3.20962e-17, No Iterations 1
smoothSolver:  Solving for e, Initial residual = 0.00093011, Final residual = 8.49921e-16, No Iterations 7
smoothSolver:  Solving for p, Initial residual = 0.000442055, Final residual = 1.30998e-16, No Iterations 6
diagonal:  Solving for rho, Initial residual = 0, Final residual = 0, No Iterations 0
time step continuity errors : sum local = 2.1744e-16, global = -7.81519e-17, cumulative = 2.33152e-13
PIMPLE: Iteration 2
smoothSolver:  Solving for Ux, Initial residual = 1.31786e-05, Final residual = 3.14789e-17, No Iterations 1
smoothSolver:  Solving for e, Initial residual = 9.5688e-05, Final residual = 8.54724e-17, No Iterations 7
smoothSolver:  Solving for p, Initial residual = 2.13617e-05, Final residual = 9.32074e-16, No Iterations 5
diagonal:  Solving for rho, Initial residual = 0, Final residual = 0, No Iterations 0
time step continuity errors : sum local = 1.12425e-15, global = 6.29222e-16, cumulative = 2.33782e-13
ExecutionTime = 4.73 s  ClockTime = 5 s

Courant Number mean: 0.153698 max: 0.293314
Time = 0.007

PIMPLE: Iteration 1
diagonal:  Solving for rho, Initial residual = 0, Final residual = 0, No Iterations 0
smoothSolver:  Solving for Ux, Initial residual = 0.000521502, Final residual = 2.95295e-17, No Iterations 1
smoothSolver:  Solving for e, Initial residual = 0.000929825, Final residual = 8.49898e-16, No Iterations 7
smoothSolver:  Solving for p, Initial residual = 0.000442416, Final residual = 1.33602e-16, No Iterations 6
diagonal:  Solving for rho, Initial residual = 0, Final residual = 0, No Iterations 0
time step continuity errors : sum local = 2.04778e-16, global = -7.13755e-17, cumulative = 2.3371e-13
PIMPLE: Iteration 2
smoothSolver:  Solving for Ux, Initial residual = 1.28479e-05, Final residual = 3.29527e-17, No Iterations 1
smoothSolver:  Solving for e, Initial residual = 9.0973e-05, Final residual = 8.67651e-17, No Iterations 7
smoothSolver:  Solving for p, Initial residual = 2.16562e-05, Final residual = 9.89471e-16, No Iterations 5
diagonal:  Solving for rho, Initial residual = 0, Final residual = 0, No Iterations 0
time step continuity errors : sum local = 1.18917e-15, global = 8.44659e-16, cumulative = 2.34555e-13
ExecutionTime = 4.75 s  ClockTime = 5 s

End

