/*---------------------------------------------------------------------------*\
  =========                 |
  \\      /  F ield         | OpenFOAM: The Open Source CFD Toolbox
   \\    /   O peration     | Website:  https://openfoam.org
    \\  /    A nd           | Version:  9
     \\/     M anipulation  |
\*---------------------------------------------------------------------------*/
Build  : 9-c8374a4890ad
Exec   : icoFoam
Date   : Dec 30 2021
Time   : 12:48:44
Host   : "endeavouros"
PID    : 424148
I/O    : uncollated
Case   : /home/ariedinger/uni/gimap/openfoam/03wiki3weeksSeries/day01/03cavityRevisited/cavity2D
nProcs : 1
sigFpe : Enabling floating point exception trapping (FOAM_SIGFPE).
fileModificationChecking : Monitoring run-time modified files using timeStampMaster (fileModificationSkew 10)
allowSystemOperations : Allowing user-supplied system call operations

// * * * * * * * * * * * * * * * * * * * * * * * * * * * * * * * * * * * * * //
Create time

Create mesh for time = 0

Reading transportProperties

Reading field p

Reading field U

Reading/calculating face flux field phi


Starting time loop

--> FOAM Warning : 
    From function bool Foam::functionObjectList::read()
    in file db/functionObjects/functionObjectList/functionObjectList.C at line 853
    Caught FatalError 
--> FOAM FATAL ERROR: 
Unknown function type fieldMinMax

Valid functions are : 

58
(
CourantNo
Lambda2
MachNo
PecletNo
Q
XiReactionRate
add
age
blendingFactor
comfort
components
cylindrical
ddt
div
divide
enstrophy
fieldAverage
fieldCoordinateSystemTransform
fieldValueDelta
flowType
grad
histogram
interfaceHeight
log
mag
magSqr
multiply
nearWallFields
patchProbes
pressure
probes
processorField
psiReactionThermoMoleFractions
randomise
readFields
regionSizeDistribution
rhoReactionThermoMoleFractions
scale
sets
shearStress
streamFunction
streamlines
subtract
surfaceFieldValue
surfaceInterpolate
surfaces
totalEnthalpy
turbulenceFields
turbulenceIntensity
uniform
volFieldValue
vorticity
wallHeatFlux
wallHeatTransferCoeff
wallShearStress
writeCellCentres
writeCellVolumes
yPlus
)



    From function static Foam::autoPtr<Foam::functionObject> Foam::functionObject::New(const Foam::word&, const Foam::Time&, const Foam::dictionary&)
    in file db/functionObjects/functionObject/functionObject.C at line 101.

Time = 0.01

Courant Number mean: 0 max: 0
smoothSolver:  Solving for Ux, Initial residual = 1, Final residual = 3.4509335e-10, No Iterations 4
smoothSolver:  Solving for Uy, Initial residual = 0, Final residual = 0, No Iterations 0
DICPCG:  Solving for p, Initial residual = 1, Final residual = 2.9006792e-07, No Iterations 36
time step continuity errors : sum local = 2.1603795e-11, global = -2.5072175e-21, cumulative = -2.5072175e-21
ExecutionTime = 0.1 s  ClockTime = 0 s

Time = 0.02

Courant Number mean: 0.0015534392 max: 0.01285183
smoothSolver:  Solving for Ux, Initial residual = 0.32429626, Final residual = 2.5973155e-09, No Iterations 3
smoothSolver:  Solving for Uy, Initial residual = 0.35013912, Final residual = 4.3844802e-09, No Iterations 3
DICPCG:  Solving for p, Initial residual = 0.19382804, Final residual = 6.3986083e-07, No Iterations 33
time step continuity errors : sum local = 8.7214337e-11, global = -3.5723613e-21, cumulative = -6.0795788e-21
ExecutionTime = 0.1 s  ClockTime = 0 s

Time = 0.03

Courant Number mean: 0.0030074119 max: 0.024832853
smoothSolver:  Solving for Ux, Initial residual = 0.17628157, Final residual = 1.416404e-09, No Iterations 3
smoothSolver:  Solving for Uy, Initial residual = 0.19122232, Final residual = 2.3657433e-09, No Iterations 3
DICPCG:  Solving for p, Initial residual = 0.043088978, Final residual = 8.2561927e-07, No Iterations 30
time step continuity errors : sum local = 1.3238472e-10, global = 2.596156e-20, cumulative = 1.9881981e-20
ExecutionTime = 0.1 s  ClockTime = 0 s

Time = 0.04

Courant Number mean: 0.0043354812 max: 0.035702579
smoothSolver:  Solving for Ux, Initial residual = 0.11852987, Final residual = 9.8238346e-10, No Iterations 3
smoothSolver:  Solving for Uy, Initial residual = 0.13243061, Final residual = 1.6416194e-09, No Iterations 3
DICPCG:  Solving for p, Initial residual = 0.026442862, Final residual = 8.8792996e-07, No Iterations 30
time step continuity errors : sum local = 1.5139223e-10, global = 2.2149912e-21, cumulative = 2.2096972e-20
ExecutionTime = 0.1 s  ClockTime = 0 s

Time = 0.05

Courant Number mean: 0.0055399278 max: 0.045478504
smoothSolver:  Solving for Ux, Initial residual = 0.087902117, Final residual = 7.3742773e-10, No Iterations 3
smoothSolver:  Solving for Uy, Initial residual = 0.098800104, Final residual = 1.228928e-09, No Iterations 3
DICPCG:  Solving for p, Initial residual = 0.021218184, Final residual = 6.6956007e-07, No Iterations 30
time step continuity errors : sum local = 1.1896444e-10, global = -2.0629487e-20, cumulative = 1.4674845e-21
ExecutionTime = 0.1 s  ClockTime = 0 s

Time = 0.06

Courant Number mean: 0.0066310097 max: 0.054250569
smoothSolver:  Solving for Ux, Initial residual = 0.069411922, Final residual = 5.8460849e-10, No Iterations 3
smoothSolver:  Solving for Uy, Initial residual = 0.077695288, Final residual = 9.7090316e-10, No Iterations 3
DICPCG:  Solving for p, Initial residual = 0.020805664, Final residual = 4.8624701e-07, No Iterations 30
time step continuity errors : sum local = 8.9316792e-11, global = 3.3699206e-20, cumulative = 3.516669e-20
ExecutionTime = 0.11 s  ClockTime = 0 s

Time = 0.07

Courant Number mean: 0.0076230247 max: 0.062123859
smoothSolver:  Solving for Ux, Initial residual = 0.057096205, Final residual = 4.8085029e-10, No Iterations 3
smoothSolver:  Solving for Uy, Initial residual = 0.063302369, Final residual = 7.9506537e-10, No Iterations 3
DICPCG:  Solving for p, Initial residual = 0.02063133, Final residual = 3.7808304e-07, No Iterations 30
time step continuity errors : sum local = 7.1479378e-11, global = 7.1193119e-21, cumulative = 4.2286002e-20
ExecutionTime = 0.11 s  ClockTime = 0 s

Time = 0.08

Courant Number mean: 0.0085532667 max: 0.069199567
smoothSolver:  Solving for Ux, Initial residual = 0.048176613, Final residual = 4.0617637e-10, No Iterations 3
smoothSolver:  Solving for Uy, Initial residual = 0.052927546, Final residual = 6.6820218e-10, No Iterations 3
DICPCG:  Solving for p, Initial residual = 0.020260545, Final residual = 8.5934067e-07, No Iterations 29
time step continuity errors : sum local = 1.6655486e-10, global = 2.9942615e-20, cumulative = 7.2228617e-20
ExecutionTime = 0.11 s  ClockTime = 0 s

Time = 0.09

Courant Number mean: 0.0094246807 max: 0.075568123
smoothSolver:  Solving for Ux, Initial residual = 0.041354719, Final residual = 3.4957092e-10, No Iterations 3
smoothSolver:  Solving for Uy, Initial residual = 0.045177414, Final residual = 5.7331304e-10, No Iterations 3
DICPCG:  Solving for p, Initial residual = 0.019344816, Final residual = 6.9947622e-07, No Iterations 29
time step continuity errors : sum local = 1.3861539e-10, global = 6.2926078e-20, cumulative = 1.3515469e-19
ExecutionTime = 0.11 s  ClockTime = 0 s

Time = 0.1

Courant Number mean: 0.010240143 max: 0.081311168
smoothSolver:  Solving for Ux, Initial residual = 0.035923447, Final residual = 3.0526643e-10, No Iterations 3
smoothSolver:  Solving for Uy, Initial residual = 0.039173727, Final residual = 4.9959143e-10, No Iterations 3
DICPCG:  Solving for p, Initial residual = 0.019238619, Final residual = 6.4581463e-07, No Iterations 29
time step continuity errors : sum local = 1.3102008e-10, global = 3.8802579e-20, cumulative = 1.7395727e-19
ExecutionTime = 0.11 s  ClockTime = 0 s

Time = 0.11

Courant Number mean: 0.011007654 max: 0.086499825
smoothSolver:  Solving for Ux, Initial residual = 0.031564352, Final residual = 2.6987102e-10, No Iterations 3
smoothSolver:  Solving for Uy, Initial residual = 0.034404444, Final residual = 4.4080909e-10, No Iterations 3
DICPCG:  Solving for p, Initial residual = 0.018636453, Final residual = 5.7768299e-07, No Iterations 29
time step continuity errors : sum local = 1.1993442e-10, global = -4.6154825e-20, cumulative = 1.2780245e-19
ExecutionTime = 0.11 s  ClockTime = 0 s

Time = 0.12

Courant Number mean: 0.011728187 max: 0.091214556
smoothSolver:  Solving for Ux, Initial residual = 0.027978117, Final residual = 2.4132218e-10, No Iterations 3
smoothSolver:  Solving for Uy, Initial residual = 0.030568836, Final residual = 3.9333634e-10, No Iterations 3
DICPCG:  Solving for p, Initial residual = 0.016273411, Final residual = 4.9467874e-07, No Iterations 29
time step continuity errors : sum local = 1.0476689e-10, global = -5.5328192e-20, cumulative = 7.2474256e-20
ExecutionTime = 0.11 s  ClockTime = 0 s

Time = 0.13

Courant Number mean: 0.01240887 max: 0.095497731
smoothSolver:  Solving for Ux, Initial residual = 0.024974692, Final residual = 2.176366e-10, No Iterations 3
smoothSolver:  Solving for Uy, Initial residual = 0.027403314, Final residual = 3.5398436e-10, No Iterations 3
DICPCG:  Solving for p, Initial residual = 0.015313616, Final residual = 4.7904085e-07, No Iterations 29
time step continuity errors : sum local = 1.0354996e-10, global = 4.5858364e-20, cumulative = 1.1833262e-19
ExecutionTime = 0.12 s  ClockTime = 0 s

Time = 0.14

Courant Number mean: 0.013051157 max: 0.099394407
smoothSolver:  Solving for Ux, Initial residual = 0.022449004, Final residual = 1.9783554e-10, No Iterations 3
smoothSolver:  Solving for Uy, Initial residual = 0.024766417, Final residual = 3.2101139e-10, No Iterations 3
DICPCG:  Solving for p, Initial residual = 0.014429719, Final residual = 9.8545921e-07, No Iterations 28
time step continuity errors : sum local = 2.1542056e-10, global = -5.5760179e-20, cumulative = 6.2572441e-20
ExecutionTime = 0.12 s  ClockTime = 0 s

Time = 0.15

Courant Number mean: 0.013658 max: 0.10294697
smoothSolver:  Solving for Ux, Initial residual = 0.020286994, Final residual = 1.8112934e-10, No Iterations 3
smoothSolver:  Solving for Uy, Initial residual = 0.022540026, Final residual = 2.9309066e-10, No Iterations 3
DICPCG:  Solving for p, Initial residual = 0.013553048, Final residual = 4.562613e-07, No Iterations 29
time step continuity errors : sum local = 1.0226194e-10, global = -7.3624104e-20, cumulative = -1.1051662e-20
ExecutionTime = 0.12 s  ClockTime = 0 s

Time = 0.16

Courant Number mean: 0.014234484 max: 0.10619231
smoothSolver:  Solving for Ux, Initial residual = 0.018484918, Final residual = 1.6686374e-10, No Iterations 3
smoothSolver:  Solving for Uy, Initial residual = 0.020638058, Final residual = 2.6922838e-10, No Iterations 3
DICPCG:  Solving for p, Initial residual = 0.013584493, Final residual = 5.3422592e-07, No Iterations 29
time step continuity errors : sum local = 1.2218812e-10, global = 6.0037695e-20, cumulative = 4.8986033e-20
ExecutionTime = 0.12 s  ClockTime = 0 s

Time = 0.17

Courant Number mean: 0.014779824 max: 0.109163
smoothSolver:  Solving for Ux, Initial residual = 0.016966508, Final residual = 1.5452134e-10, No Iterations 3
smoothSolver:  Solving for Uy, Initial residual = 0.019004953, Final residual = 2.4865374e-10, No Iterations 3
DICPCG:  Solving for p, Initial residual = 0.012634679, Final residual = 4.8259684e-07, No Iterations 29
time step continuity errors : sum local = 1.1201951e-10, global = -1.9913745e-20, cumulative = 2.9072288e-20
ExecutionTime = 0.12 s  ClockTime = 0 s

Time = 0.18

Courant Number mean: 0.015298046 max: 0.11188795
smoothSolver:  Solving for Ux, Initial residual = 0.015664717, Final residual = 1.4373493e-10, No Iterations 3
smoothSolver:  Solving for Uy, Initial residual = 0.017582541, Final residual = 2.3067576e-10, No Iterations 3
DICPCG:  Solving for p, Initial residual = 0.012308501, Final residual = 4.1937623e-07, No Iterations 29
time step continuity errors : sum local = 9.9085889e-11, global = 4.8958504e-21, cumulative = 3.3968139e-20
ExecutionTime = 0.12 s  ClockTime = 0 s

Time = 0.19

Courant Number mean: 0.01579186 max: 0.11439244
smoothSolver:  Solving for Ux, Initial residual = 0.014525304, Final residual = 1.342137e-10, No Iterations 3
smoothSolver:  Solving for Uy, Initial residual = 0.016337558, Final residual = 2.1488243e-10, No Iterations 3
DICPCG:  Solving for p, Initial residual = 0.012602432, Final residual = 8.5373941e-07, No Iterations 28
time step continuity errors : sum local = 2.0350275e-10, global = 3.8099542e-20, cumulative = 7.2067681e-20
ExecutionTime = 0.12 s  ClockTime = 0 s

Time = 0.2

Courant Number mean: 0.016261221 max: 0.1166989
smoothSolver:  Solving for Ux, Initial residual = 0.013527913, Final residual = 1.2574964e-10, No Iterations 3
smoothSolver:  Solving for Uy, Initial residual = 0.015240434, Final residual = 2.0091403e-10, No Iterations 3
DICPCG:  Solving for p, Initial residual = 0.014267983, Final residual = 5.671762e-07, No Iterations 28
time step continuity errors : sum local = 1.3731277e-10, global = 4.3664548e-20, cumulative = 1.1573223e-19
ExecutionTime = 0.12 s  ClockTime = 0 s

Time = 0.21

Courant Number mean: 0.016707898 max: 0.11882708
smoothSolver:  Solving for Ux, Initial residual = 0.012642752, Final residual = 1.1820424e-10, No Iterations 3
smoothSolver:  Solving for Uy, Initial residual = 0.014262148, Final residual = 1.884663e-10, No Iterations 3
DICPCG:  Solving for p, Initial residual = 0.013616343, Final residual = 6.7837142e-07, No Iterations 29
time step continuity errors : sum local = 1.683387e-10, global = -8.1552332e-20, cumulative = 3.4179897e-20
ExecutionTime = 0.13 s  ClockTime = 0 s

Time = 0.22

Courant Number mean: 0.017137759 max: 0.12079613
smoothSolver:  Solving for Ux, Initial residual = 0.011869312, Final residual = 1.1148639e-10, No Iterations 3
smoothSolver:  Solving for Uy, Initial residual = 0.013420964, Final residual = 1.7740444e-10, No Iterations 3
DICPCG:  Solving for p, Initial residual = 0.01165398, Final residual = 6.154956e-07, No Iterations 29
time step continuity errors : sum local = 1.5599492e-10, global = -1.8583903e-20, cumulative = 1.5595994e-20
ExecutionTime = 0.13 s  ClockTime = 0 s

Time = 0.23

Courant Number mean: 0.01754897 max: 0.12262173
smoothSolver:  Solving for Ux, Initial residual = 0.011179616, Final residual = 1.0542814e-10, No Iterations 3
smoothSolver:  Solving for Uy, Initial residual = 0.012657899, Final residual = 1.6746729e-10, No Iterations 3
DICPCG:  Solving for p, Initial residual = 0.0075162354, Final residual = 4.1437221e-07, No Iterations 29
time step continuity errors : sum local = 1.0693132e-10, global = 8.1061053e-20, cumulative = 9.6657047e-20
ExecutionTime = 0.13 s  ClockTime = 0 s

Time = 0.24

Courant Number mean: 0.017942352 max: 0.12433593
smoothSolver:  Solving for Ux, Initial residual = 0.01055347, Final residual = 9.9950556e-11, No Iterations 3
smoothSolver:  Solving for Uy, Initial residual = 0.011956089, Final residual = 1.5847482e-10, No Iterations 3
DICPCG:  Solving for p, Initial residual = 0.0077381436, Final residual = 9.9995902e-07, No Iterations 28
time step continuity errors : sum local = 2.5920059e-10, global = 1.0433752e-19, cumulative = 2.0099457e-19
ExecutionTime = 0.13 s  ClockTime = 0 s

Time = 0.25

Courant Number mean: 0.018318654 max: 0.12593704
smoothSolver:  Solving for Ux, Initial residual = 0.0099856995, Final residual = 9.4972285e-11, No Iterations 3
smoothSolver:  Solving for Uy, Initial residual = 0.011324853, Final residual = 1.5030479e-10, No Iterations 3
DICPCG:  Solving for p, Initial residual = 0.0080741744, Final residual = 4.0361343e-07, No Iterations 29
time step continuity errors : sum local = 1.0680993e-10, global = -8.9345035e-20, cumulative = 1.1164953e-19
ExecutionTime = 0.13 s  ClockTime = 0 s

Time = 0.26

Courant Number mean: 0.018678915 max: 0.1274306
smoothSolver:  Solving for Ux, Initial residual = 0.00947233, Final residual = 9.0419966e-11, No Iterations 3
smoothSolver:  Solving for Uy, Initial residual = 0.01075511, Final residual = 1.4286691e-10, No Iterations 3
DICPCG:  Solving for p, Initial residual = 0.008041478, Final residual = 3.9763995e-07, No Iterations 29
time step continuity errors : sum local = 1.0662608e-10, global = 1.9219178e-20, cumulative = 1.3086871e-19
ExecutionTime = 0.13 s  ClockTime = 0 s

Time = 0.27

Courant Number mean: 0.019024383 max: 0.12882664
smoothSolver:  Solving for Ux, Initial residual = 0.0090009507, Final residual = 8.6274755e-11, No Iterations 3
smoothSolver:  Solving for Uy, Initial residual = 0.010237026, Final residual = 1.3607196e-10, No Iterations 3
DICPCG:  Solving for p, Initial residual = 0.0078337904, Final residual = 9.7554546e-07, No Iterations 28
time step continuity errors : sum local = 2.6327458e-10, global = -1.3864235e-19, cumulative = -7.773645e-21
ExecutionTime = 0.13 s  ClockTime = 0 s

Time = 0.28

Courant Number mean: 0.019355921 max: 0.13013405
smoothSolver:  Solving for Ux, Initial residual = 0.0085684759, Final residual = 8.245458e-11, No Iterations 3
smoothSolver:  Solving for Uy, Initial residual = 0.0097636053, Final residual = 1.2983789e-10, No Iterations 3
DICPCG:  Solving for p, Initial residual = 0.0085345411, Final residual = 7.7303652e-07, No Iterations 28
time step continuity errors : sum local = 2.1074111e-10, global = 1.1771217e-19, cumulative = 1.0993852e-19
ExecutionTime = 0.13 s  ClockTime = 0 s

Time = 0.29

Courant Number mean: 0.019674363 max: 0.13136011
smoothSolver:  Solving for Ux, Initial residual = 0.008174379, Final residual = 7.8998093e-11, No Iterations 3
smoothSolver:  Solving for Uy, Initial residual = 0.0093204591, Final residual = 1.2414711e-10, No Iterations 3
DICPCG:  Solving for p, Initial residual = 0.0059707994, Final residual = 8.8629456e-07, No Iterations 28
time step continuity errors : sum local = 2.4250689e-10, global = -1.6181717e-19, cumulative = -5.1878651e-20
ExecutionTime = 0.14 s  ClockTime = 0 s

Time = 0.3

Courant Number mean: 0.019980747 max: 0.13251215
smoothSolver:  Solving for Ux, Initial residual = 0.0078070452, Final residual = 7.5888977e-11, No Iterations 3
smoothSolver:  Solving for Uy, Initial residual = 0.0089218456, Final residual = 1.1888281e-10, No Iterations 3
DICPCG:  Solving for p, Initial residual = 0.0059899129, Final residual = 8.8520855e-07, No Iterations 28
time step continuity errors : sum local = 2.4451849e-10, global = 7.3251409e-20, cumulative = 2.1372759e-20
ExecutionTime = 0.14 s  ClockTime = 0 s

Time = 0.31

Courant Number mean: 0.020275669 max: 0.13359798
smoothSolver:  Solving for Ux, Initial residual = 0.0074669577, Final residual = 7.3064065e-11, No Iterations 3
smoothSolver:  Solving for Uy, Initial residual = 0.008553135, Final residual = 1.140102e-10, No Iterations 3
DICPCG:  Solving for p, Initial residual = 0.0052972156, Final residual = 7.9867178e-07, No Iterations 28
time step continuity errors : sum local = 2.2252242e-10, global = 5.861468e-20, cumulative = 7.9987439e-20
ExecutionTime = 0.14 s  ClockTime = 0 s

Time = 0.32

Courant Number mean: 0.020561507 max: 0.13462231
smoothSolver:  Solving for Ux, Initial residual = 0.0071499318, Final residual = 7.0475861e-11, No Iterations 3
smoothSolver:  Solving for Uy, Initial residual = 0.0082167487, Final residual = 1.0948904e-10, No Iterations 3
DICPCG:  Solving for p, Initial residual = 0.0050703828, Final residual = 7.4905981e-07, No Iterations 28
time step continuity errors : sum local = 2.1040022e-10, global = -1.3034143e-19, cumulative = -5.0353991e-20
ExecutionTime = 0.14 s  ClockTime = 0 s

Time = 0.33

Courant Number mean: 0.020837318 max: 0.13558986
smoothSolver:  Solving for Ux, Initial residual = 0.0068536123, Final residual = 6.8053844e-11, No Iterations 3
smoothSolver:  Solving for Uy, Initial residual = 0.0079041002, Final residual = 1.0528234e-10, No Iterations 3
DICPCG:  Solving for p, Initial residual = 0.0048785225, Final residual = 7.0345858e-07, No Iterations 28
time step continuity errors : sum local = 1.9910309e-10, global = -1.1282479e-20, cumulative = -6.163647e-20
ExecutionTime = 0.14 s  ClockTime = 0 s

Time = 0.34

Courant Number mean: 0.021103478 max: 0.13650509
smoothSolver:  Solving for Ux, Initial residual = 0.0065842773, Final residual = 6.5785285e-11, No Iterations 3
smoothSolver:  Solving for Uy, Initial residual = 0.0076128557, Final residual = 1.0135835e-10, No Iterations 3
DICPCG:  Solving for p, Initial residual = 0.0047260118, Final residual = 6.6061776e-07, No Iterations 28
time step continuity errors : sum local = 1.883199e-10, global = -6.6170214e-20, cumulative = -1.2780668e-19
ExecutionTime = 0.14 s  ClockTime = 0 s

Time = 0.35

Courant Number mean: 0.021360526 max: 0.13737207
smoothSolver:  Solving for Ux, Initial residual = 0.006338896, Final residual = 6.3683963e-11, No Iterations 3
smoothSolver:  Solving for Uy, Initial residual = 0.007342541, Final residual = 9.7699217e-11, No Iterations 3
DICPCG:  Solving for p, Initial residual = 0.0046695555, Final residual = 6.2051969e-07, No Iterations 28
time step continuity errors : sum local = 1.7806131e-10, global = 1.4156462e-19, cumulative = 1.3757933e-20
ExecutionTime = 0.14 s  ClockTime = 0 s

Time = 0.36

Courant Number mean: 0.021609072 max: 0.13819446
smoothSolver:  Solving for Ux, Initial residual = 0.0061131145, Final residual = 6.1706944e-11, No Iterations 3
smoothSolver:  Solving for Uy, Initial residual = 0.0070909468, Final residual = 9.4291422e-11, No Iterations 3
DICPCG:  Solving for p, Initial residual = 0.0062701709, Final residual = 5.8089355e-07, No Iterations 28
time step continuity errors : sum local = 1.678563e-10, global = -1.31036e-19, cumulative = -1.1727806e-19
ExecutionTime = 0.14 s  ClockTime = 0 s

Time = 0.37

Courant Number mean: 0.021854827 max: 0.13897572
smoothSolver:  Solving for Ux, Initial residual = 0.0059094689, Final residual = 5.9836284e-11, No Iterations 3
smoothSolver:  Solving for Uy, Initial residual = 0.0068483866, Final residual = 9.1085846e-11, No Iterations 3
DICPCG:  Solving for p, Initial residual = 0.0048864197, Final residual = 5.9147745e-07, No Iterations 28
time step continuity errors : sum local = 1.713886e-10, global = -1.0975853e-19, cumulative = -2.2703659e-19
ExecutionTime = 0.15 s  ClockTime = 0 s

Time = 0.38

Courant Number mean: 0.022097551 max: 0.13971923
smoothSolver:  Solving for Ux, Initial residual = 0.0057116749, Final residual = 5.8053353e-11, No Iterations 3
smoothSolver:  Solving for Uy, Initial residual = 0.0066255379, Final residual = 8.8079907e-11, No Iterations 3
DICPCG:  Solving for p, Initial residual = 0.0047294603, Final residual = 5.4925524e-07, No Iterations 28
time step continuity errors : sum local = 1.6034841e-10, global = -5.0517045e-20, cumulative = -2.7755364e-19
ExecutionTime = 0.15 s  ClockTime = 0 s

Time = 0.39

Courant Number mean: 0.022338722 max: 0.14042773
smoothSolver:  Solving for Ux, Initial residual = 0.0055227714, Final residual = 5.6327015e-11, No Iterations 3
smoothSolver:  Solving for Uy, Initial residual = 0.0064157449, Final residual = 8.5203982e-11, No Iterations 3
DICPCG:  Solving for p, Initial residual = 0.0044549431, Final residual = 5.1701864e-07, No Iterations 28
time step continuity errors : sum local = 1.5128967e-10, global = -8.9154453e-20, cumulative = -3.6670809e-19
ExecutionTime = 0.15 s  ClockTime = 0 s

Time = 0.4

Courant Number mean: 0.022573742 max: 0.14110269
smoothSolver:  Solving for Ux, Initial residual = 0.0053467672, Final residual = 5.4723281e-11, No Iterations 3
smoothSolver:  Solving for Uy, Initial residual = 0.0062247522, Final residual = 8.2597743e-11, No Iterations 3
DICPCG:  Solving for p, Initial residual = 0.0040058739, Final residual = 4.758203e-07, No Iterations 28
time step continuity errors : sum local = 1.4049476e-10, global = -1.2790198e-20, cumulative = -3.7949829e-19
ExecutionTime = 0.15 s  ClockTime = 0 s

Time = 0.41

Courant Number mean: 0.022802982 max: 0.14175561
smoothSolver:  Solving for Ux, Initial residual = 0.005180282, Final residual = 5.317485e-11, No Iterations 3
smoothSolver:  Solving for Uy, Initial residual = 0.0060413109, Final residual = 8.0069806e-11, No Iterations 3
DICPCG:  Solving for p, Initial residual = 0.0048706644, Final residual = 4.63097e-07, No Iterations 28
time step continuity errors : sum local = 1.3794308e-10, global = 2.467407e-20, cumulative = -3.5482422e-19
ExecutionTime = 0.15 s  ClockTime = 0 s

Time = 0.42

Courant Number mean: 0.023031216 max: 0.14239248
smoothSolver:  Solving for Ux, Initial residual = 0.0050239073, Final residual = 5.1665177e-11, No Iterations 3
smoothSolver:  Solving for Uy, Initial residual = 0.0058574375, Final residual = 7.7545643e-11, No Iterations 3
DICPCG:  Solving for p, Initial residual = 0.0049037735, Final residual = 5.382049e-07, No Iterations 28
time step continuity errors : sum local = 1.601498e-10, global = 8.2373954e-20, cumulative = -2.7245027e-19
ExecutionTime = 0.15 s  ClockTime = 0 s

Time = 0.43

Courant Number mean: 0.0232537 max: 0.14299882
smoothSolver:  Solving for Ux, Initial residual = 0.0048773396, Final residual = 5.0314693e-11, No Iterations 3
smoothSolver:  Solving for Uy, Initial residual = 0.0057099918, Final residual = 7.5489236e-11, No Iterations 3
DICPCG:  Solving for p, Initial residual = 0.0038144007, Final residual = 4.5454719e-07, No Iterations 28
time step continuity errors : sum local = 1.3647086e-10, global = 1.7110068e-21, cumulative = -2.7073926e-19
ExecutionTime = 0.15 s  ClockTime = 0 s

Time = 0.44

Courant Number mean: 0.023470718 max: 0.14357968
smoothSolver:  Solving for Ux, Initial residual = 0.004735628, Final residual = 4.8977233e-11, No Iterations 3
smoothSolver:  Solving for Uy, Initial residual = 0.0055542707, Final residual = 7.3359482e-11, No Iterations 3
DICPCG:  Solving for p, Initial residual = 0.0036874651, Final residual = 4.6592356e-07, No Iterations 28
time step continuity errors : sum local = 1.4066911e-10, global = -4.2995393e-20, cumulative = -3.1373465e-19
ExecutionTime = 0.15 s  ClockTime = 0 s

Time = 0.45

Courant Number mean: 0.023682512 max: 0.14413753
smoothSolver:  Solving for Ux, Initial residual = 0.0046014727, Final residual = 4.7689008e-11, No Iterations 3
smoothSolver:  Solving for Uy, Initial residual = 0.0054054853, Final residual = 7.1323705e-11, No Iterations 3
DICPCG:  Solving for p, Initial residual = 0.0044318081, Final residual = 5.4250644e-07, No Iterations 28
time step continuity errors : sum local = 1.6543175e-10, global = 1.208716e-20, cumulative = -3.0164749e-19
ExecutionTime = 0.16 s  ClockTime = 0 s

Time = 0.46

Courant Number mean: 0.023890884 max: 0.14467417
smoothSolver:  Solving for Ux, Initial residual = 0.0044722457, Final residual = 4.6454776e-11, No Iterations 3
smoothSolver:  Solving for Uy, Initial residual = 0.0052603554, Final residual = 6.9297509e-11, No Iterations 3
DICPCG:  Solving for p, Initial residual = 0.0032908529, Final residual = 4.5820646e-07, No Iterations 28
time step continuity errors : sum local = 1.3929453e-10, global = -7.3293761e-20, cumulative = -3.7494125e-19
ExecutionTime = 0.16 s  ClockTime = 0 s

Time = 0.47

Courant Number mean: 0.024097875 max: 0.1451903
smoothSolver:  Solving for Ux, Initial residual = 0.0043493906, Final residual = 4.530099e-11, No Iterations 3
smoothSolver:  Solving for Uy, Initial residual = 0.0051279319, Final residual = 6.7484872e-11, No Iterations 3
DICPCG:  Solving for p, Initial residual = 0.0037256218, Final residual = 5.07909e-07, No Iterations 28
time step continuity errors : sum local = 1.5463583e-10, global = 1.494759e-19, cumulative = -2.2546535e-19
ExecutionTime = 0.17 s  ClockTime = 0 s

Time = 0.48

Courant Number mean: 0.024300476 max: 0.14568687
smoothSolver:  Solving for Ux, Initial residual = 0.0042322213, Final residual = 4.4212055e-11, No Iterations 3
smoothSolver:  Solving for Uy, Initial residual = 0.0050055826, Final residual = 6.582159e-11, No Iterations 3
DICPCG:  Solving for p, Initial residual = 0.0030845734, Final residual = 4.3131866e-07, No Iterations 28
time step continuity errors : sum local = 1.3239416e-10, global = 8.3898613e-20, cumulative = -1.4156673e-19
ExecutionTime = 0.17 s  ClockTime = 0 s

Time = 0.49

Courant Number mean: 0.024498464 max: 0.14616535
smoothSolver:  Solving for Ux, Initial residual = 0.0041203069, Final residual = 4.3150304e-11, No Iterations 3
smoothSolver:  Solving for Uy, Initial residual = 0.0048848357, Final residual = 6.4156792e-11, No Iterations 3
DICPCG:  Solving for p, Initial residual = 0.0030165793, Final residual = 4.3708863e-07, No Iterations 28
time step continuity errors : sum local = 1.3469634e-10, global = 1.017583e-19, cumulative = -3.9808431e-20
ExecutionTime = 0.17 s  ClockTime = 0 s

Time = 0.5

Courant Number mean: 0.02469189 max: 0.14662683
smoothSolver:  Solving for Ux, Initial residual = 0.0040138888, Final residual = 4.214186e-11, No Iterations 3
smoothSolver:  Solving for Uy, Initial residual = 0.0047696914, Final residual = 6.2560929e-11, No Iterations 3
DICPCG:  Solving for p, Initial residual = 0.0030709955, Final residual = 4.6283249e-07, No Iterations 28
time step continuity errors : sum local = 1.4325388e-10, global = -6.7923572e-20, cumulative = -1.07732e-19
ExecutionTime = 0.17 s  ClockTime = 0 s

Time = 0.51

Courant Number mean: 0.024881141 max: 0.14707205
smoothSolver:  Solving for Ux, Initial residual = 0.0039107184, Final residual = 4.1174542e-11, No Iterations 3
smoothSolver:  Solving for Uy, Initial residual = 0.0046599372, Final residual = 6.1028821e-11, No Iterations 3
DICPCG:  Solving for p, Initial residual = 0.0034974392, Final residual = 5.9890143e-07, No Iterations 28
time step continuity errors : sum local = 1.8618058e-10, global = -2.2022857e-22, cumulative = -1.0795223e-19
ExecutionTime = 0.17 s  ClockTime = 0 s

Time = 0.52

Courant Number mean: 0.025066344 max: 0.14750253
smoothSolver:  Solving for Ux, Initial residual = 0.003810395, Final residual = 4.0241293e-11, No Iterations 3
smoothSolver:  Solving for Uy, Initial residual = 0.0045551458, Final residual = 5.9552105e-11, No Iterations 3
DICPCG:  Solving for p, Initial residual = 0.0029821963, Final residual = 4.3439805e-07, No Iterations 28
time step continuity errors : sum local = 1.3505244e-10, global = -1.9054853e-19, cumulative = -2.9850076e-19
ExecutionTime = 0.17 s  ClockTime = 0 s

Time = 0.53

Courant Number mean: 0.025247432 max: 0.14791857
smoothSolver:  Solving for Ux, Initial residual = 0.003714785, Final residual = 3.9336585e-11, No Iterations 3
smoothSolver:  Solving for Uy, Initial residual = 0.0044528502, Final residual = 5.815085e-11, No Iterations 3
DICPCG:  Solving for p, Initial residual = 0.0037789822, Final residual = 8.6268733e-07, No Iterations 27
time step continuity errors : sum local = 2.695574e-10, global = 3.1043758e-21, cumulative = -2.9539639e-19
ExecutionTime = 0.17 s  ClockTime = 0 s

Time = 0.54

Courant Number mean: 0.025425892 max: 0.1483207
smoothSolver:  Solving for Ux, Initial residual = 0.0036227952, Final residual = 3.8454596e-11, No Iterations 3
smoothSolver:  Solving for Uy, Initial residual = 0.0043505284, Final residual = 5.6761146e-11, No Iterations 3
DICPCG:  Solving for p, Initial residual = 0.003325366, Final residual = 5.8495521e-07, No Iterations 28
time step continuity errors : sum local = 1.8282407e-10, global = 4.6857863e-20, cumulative = -2.4853852e-19
ExecutionTime = 0.17 s  ClockTime = 0 s

Time = 0.55

Courant Number mean: 0.025602525 max: 0.14870987
smoothSolver:  Solving for Ux, Initial residual = 0.0035339844, Final residual = 3.7645416e-11, No Iterations 3
smoothSolver:  Solving for Uy, Initial residual = 0.0042622808, Final residual = 5.5534155e-11, No Iterations 3
DICPCG:  Solving for p, Initial residual = 0.0034968592, Final residual = 5.9595059e-07, No Iterations 28
time step continuity errors : sum local = 1.8682845e-10, global = -4.7878538e-20, cumulative = -2.9641706e-19
ExecutionTime = 0.18 s  ClockTime = 0 s

Time = 0.56

Courant Number mean: 0.025777182 max: 0.14908694
smoothSolver:  Solving for Ux, Initial residual = 0.0034485125, Final residual = 3.6874673e-11, No Iterations 3
smoothSolver:  Solving for Uy, Initial residual = 0.0041797928, Final residual = 5.4378602e-11, No Iterations 3
DICPCG:  Solving for p, Initial residual = 0.0025793604, Final residual = 4.3556409e-07, No Iterations 28
time step continuity errors : sum local = 1.3722912e-10, global = -2.1628563e-19, cumulative = -5.1270269e-19
ExecutionTime = 0.18 s  ClockTime = 0 s

Time = 0.57

Courant Number mean: 0.025948447 max: 0.14945246
smoothSolver:  Solving for Ux, Initial residual = 0.0033660502, Final residual = 3.6116331e-11, No Iterations 3
smoothSolver:  Solving for Uy, Initial residual = 0.0040940498, Final residual = 5.3195239e-11, No Iterations 3
DICPCG:  Solving for p, Initial residual = 0.0025306198, Final residual = 4.3860776e-07, No Iterations 28
time step continuity errors : sum local = 1.3855721e-10, global = -2.8904999e-20, cumulative = -5.4160769e-19
ExecutionTime = 0.18 s  ClockTime = 0 s

Time = 0.58

Courant Number mean: 0.026116232 max: 0.14980694
smoothSolver:  Solving for Ux, Initial residual = 0.0032865637, Final residual = 3.5382684e-11, No Iterations 3
smoothSolver:  Solving for Uy, Initial residual = 0.0040113005, Final residual = 5.205532e-11, No Iterations 3
DICPCG:  Solving for p, Initial residual = 0.0024774696, Final residual = 4.3679604e-07, No Iterations 28
time step continuity errors : sum local = 1.3835375e-10, global = 7.377657e-20, cumulative = -4.6783112e-19
ExecutionTime = 0.18 s  ClockTime = 0 s

Time = 0.59

Courant Number mean: 0.02628063 max: 0.15015085
smoothSolver:  Solving for Ux, Initial residual = 0.0032103794, Final residual = 3.4671856e-11, No Iterations 3
smoothSolver:  Solving for Uy, Initial residual = 0.003931381, Final residual = 5.0957202e-11, No Iterations 3
DICPCG:  Solving for p, Initial residual = 0.0024329559, Final residual = 4.360031e-07, No Iterations 28
time step continuity errors : sum local = 1.3844825e-10, global = 3.6854404e-20, cumulative = -4.3097672e-19
ExecutionTime = 0.18 s  ClockTime = 0 s

Time = 0.6

Courant Number mean: 0.026441745 max: 0.15048466
smoothSolver:  Solving for Ux, Initial residual = 0.0031372273, Final residual = 3.3983298e-11, No Iterations 3
smoothSolver:  Solving for Uy, Initial residual = 0.0038544448, Final residual = 4.9900419e-11, No Iterations 3
DICPCG:  Solving for p, Initial residual = 0.002412312, Final residual = 4.3698585e-07, No Iterations 28
time step continuity errors : sum local = 1.3909988e-10, global = -2.3222679e-19, cumulative = -6.6320351e-19
ExecutionTime = 0.18 s  ClockTime = 0 s

Time = 0.61

Courant Number mean: 0.026599687 max: 0.15080879
smoothSolver:  Solving for Ux, Initial residual = 0.0030693001, Final residual = 3.3324143e-11, No Iterations 3
smoothSolver:  Solving for Uy, Initial residual = 0.0037804512, Final residual = 4.888369e-11, No Iterations 3
DICPCG:  Solving for p, Initial residual = 0.0025270198, Final residual = 4.3657335e-07, No Iterations 28
time step continuity errors : sum local = 1.3932999e-10, global = -1.1253256e-19, cumulative = -7.7573607e-19
ExecutionTime = 0.18 s  ClockTime = 0 s

Time = 0.62

Courant Number mean: 0.026754849 max: 0.15112353
smoothSolver:  Solving for Ux, Initial residual = 0.0030054737, Final residual = 3.2698453e-11, No Iterations 3
smoothSolver:  Solving for Uy, Initial residual = 0.0037098336, Final residual = 4.7909068e-11, No Iterations 3
DICPCG:  Solving for p, Initial residual = 0.0026570482, Final residual = 5.1848684e-07, No Iterations 28
time step continuity errors : sum local = 1.6600899e-10, global = -6.0215572e-20, cumulative = -8.3595164e-19
ExecutionTime = 0.19 s  ClockTime = 0 s

Time = 0.63

Courant Number mean: 0.026907151 max: 0.15142983
smoothSolver:  Solving for Ux, Initial residual = 0.0029454143, Final residual = 3.2084392e-11, No Iterations 3
smoothSolver:  Solving for Uy, Initial residual = 0.0036384675, Final residual = 4.6948012e-11, No Iterations 3
DICPCG:  Solving for p, Initial residual = 0.0022636447, Final residual = 4.2385856e-07, No Iterations 28
time step continuity errors : sum local = 1.3593118e-10, global = -2.1556989e-21, cumulative = -8.3810734e-19
ExecutionTime = 0.19 s  ClockTime = 0 s

Time = 0.64

Courant Number mean: 0.02705657 max: 0.15172781
smoothSolver:  Solving for Ux, Initial residual = 0.002887045, Final residual = 3.1489696e-11, No Iterations 3
smoothSolver:  Solving for Uy, Initial residual = 0.0035715747, Final residual = 4.6034351e-11, No Iterations 3
DICPCG:  Solving for p, Initial residual = 0.0022278798, Final residual = 4.2098361e-07, No Iterations 28
time step continuity errors : sum local = 1.3531422e-10, global = 1.6512907e-20, cumulative = -8.2159443e-19
ExecutionTime = 0.19 s  ClockTime = 0 s

Time = 0.65

Courant Number mean: 0.027203192 max: 0.15201772
smoothSolver:  Solving for Ux, Initial residual = 0.0028311671, Final residual = 3.0911965e-11, No Iterations 3
smoothSolver:  Solving for Uy, Initial residual = 0.0035070762, Final residual = 4.5156084e-11, No Iterations 3
DICPCG:  Solving for p, Initial residual = 0.0022128569, Final residual = 4.1388711e-07, No Iterations 28
time step continuity errors : sum local = 1.3334214e-10, global = 4.9017797e-20, cumulative = -7.7257664e-19
ExecutionTime = 0.19 s  ClockTime = 0 s

Time = 0.66

Courant Number mean: 0.027347304 max: 0.15229987
smoothSolver:  Solving for Ux, Initial residual = 0.0027767819, Final residual = 3.0358093e-11, No Iterations 3
smoothSolver:  Solving for Uy, Initial residual = 0.0034448428, Final residual = 4.4310512e-11, No Iterations 3
DICPCG:  Solving for p, Initial residual = 0.0021491761, Final residual = 4.1728204e-07, No Iterations 28
time step continuity errors : sum local = 1.3471344e-10, global = -7.2493315e-20, cumulative = -8.4506995e-19
ExecutionTime = 0.19 s  ClockTime = 0 s

Time = 0.67

Courant Number mean: 0.027489017 max: 0.15257457
smoothSolver:  Solving for Ux, Initial residual = 0.0027239759, Final residual = 2.9825403e-11, No Iterations 3
smoothSolver:  Solving for Uy, Initial residual = 0.0033844393, Final residual = 4.3490738e-11, No Iterations 3
DICPCG:  Solving for p, Initial residual = 0.0021788029, Final residual = 4.236978e-07, No Iterations 28
time step continuity errors : sum local = 1.3705679e-10, global = 1.3755392e-19, cumulative = -7.0751603e-19
ExecutionTime = 0.19 s  ClockTime = 0 s

Time = 0.68

Courant Number mean: 0.027628185 max: 0.15284213
smoothSolver:  Solving for Ux, Initial residual = 0.0026736643, Final residual = 2.9310445e-11, No Iterations 3
smoothSolver:  Solving for Uy, Initial residual = 0.0033263628, Final residual = 4.2695829e-11, No Iterations 3
DICPCG:  Solving for p, Initial residual = 0.0022193919, Final residual = 9.9721536e-07, No Iterations 27
time step continuity errors : sum local = 3.2458301e-10, global = -3.7519324e-20, cumulative = -7.4503536e-19
ExecutionTime = 0.19 s  ClockTime = 0 s

Time = 0.69

Courant Number mean: 0.027764883 max: 0.15310285
smoothSolver:  Solving for Ux, Initial residual = 0.0026246705, Final residual = 2.8809542e-11, No Iterations 3
smoothSolver:  Solving for Uy, Initial residual = 0.0032705849, Final residual = 4.1931381e-11, No Iterations 3
DICPCG:  Solving for p, Initial residual = 0.0026752946, Final residual = 5.0768594e-07, No Iterations 28
time step continuity errors : sum local = 1.6500587e-10, global = 1.1620869e-19, cumulative = -6.2882667e-19
ExecutionTime = 0.19 s  ClockTime = 0 s

Time = 0.7

Courant Number mean: 0.027900183 max: 0.1533571
smoothSolver:  Solving for Ux, Initial residual = 0.0025767228, Final residual = 2.833189e-11, No Iterations 3
smoothSolver:  Solving for Uy, Initial residual = 0.0032185385, Final residual = 4.1208381e-11, No Iterations 3
DICPCG:  Solving for p, Initial residual = 0.0024471428, Final residual = 7.4061023e-07, No Iterations 27
time step continuity errors : sum local = 2.4234485e-10, global = 1.8255254e-19, cumulative = -4.4627413e-19
ExecutionTime = 0.2 s  ClockTime = 0 s

Time = 0.71

Courant Number mean: 0.028034342 max: 0.15360491
smoothSolver:  Solving for Ux, Initial residual = 0.0025312031, Final residual = 2.7862015e-11, No Iterations 3
smoothSolver:  Solving for Uy, Initial residual = 0.0031626543, Final residual = 4.0461771e-11, No Iterations 3
DICPCG:  Solving for p, Initial residual = 0.0025034883, Final residual = 7.8057552e-07, No Iterations 27
time step continuity errors : sum local = 2.5594241e-10, global = -8.6202543e-20, cumulative = -5.3247668e-19
ExecutionTime = 0.2 s  ClockTime = 0 s

Time = 0.72

Courant Number mean: 0.028166055 max: 0.15384642
smoothSolver:  Solving for Ux, Initial residual = 0.0024876368, Final residual = 2.7415765e-11, No Iterations 3
smoothSolver:  Solving for Uy, Initial residual = 0.0031083639, Final residual = 3.9738519e-11, No Iterations 3
DICPCG:  Solving for p, Initial residual = 0.0019445656, Final residual = 9.9225991e-07, No Iterations 27
time step continuity errors : sum local = 3.2537696e-10, global = -7.5195349e-20, cumulative = -6.0767202e-19
ExecutionTime = 0.2 s  ClockTime = 0 s

Time = 0.73

Courant Number mean: 0.028295486 max: 0.15408197
smoothSolver:  Solving for Ux, Initial residual = 0.0024446611, Final residual = 2.6983572e-11, No Iterations 3
smoothSolver:  Solving for Uy, Initial residual = 0.0030582247, Final residual = 3.905919e-11, No Iterations 3
DICPCG:  Solving for p, Initial residual = 0.00191941, Final residual = 9.7542393e-07, No Iterations 27
time step continuity errors : sum local = 3.2043885e-10, global = -4.7484667e-20, cumulative = -6.5515669e-19
ExecutionTime = 0.2 s  ClockTime = 0 s

Time = 0.74

Courant Number mean: 0.028422738 max: 0.15431182
smoothSolver:  Solving for Ux, Initial residual = 0.0024027197, Final residual = 2.656613e-11, No Iterations 3
smoothSolver:  Solving for Uy, Initial residual = 0.0030098662, Final residual = 3.840103e-11, No Iterations 3
DICPCG:  Solving for p, Initial residual = 0.0019253663, Final residual = 9.789176e-07, No Iterations 27
time step continuity errors : sum local = 3.2212274e-10, global = 3.8709406e-20, cumulative = -6.1644729e-19
ExecutionTime = 0.2 s  ClockTime = 0 s

Time = 0.75

Courant Number mean: 0.028547909 max: 0.15453619
smoothSolver:  Solving for Ux, Initial residual = 0.002361853, Final residual = 2.6160795e-11, No Iterations 3
smoothSolver:  Solving for Uy, Initial residual = 0.0029630786, Final residual = 3.7765074e-11, No Iterations 3
DICPCG:  Solving for p, Initial residual = 0.001967901, Final residual = 9.7933365e-07, No Iterations 27
time step continuity errors : sum local = 3.227951e-10, global = 4.2139884e-21, cumulative = -6.122333e-19
ExecutionTime = 0.2 s  ClockTime = 0 s

Time = 0.76

Courant Number mean: 0.028671071 max: 0.15475524
smoothSolver:  Solving for Ux, Initial residual = 0.0023229752, Final residual = 2.5769583e-11, No Iterations 3
smoothSolver:  Solving for Uy, Initial residual = 0.0029178462, Final residual = 3.7152101e-11, No Iterations 3
DICPCG:  Solving for p, Initial residual = 0.0018703939, Final residual = 9.4304164e-07, No Iterations 27
time step continuity errors : sum local = 3.1139237e-10, global = 1.6030946e-19, cumulative = -4.5192384e-19
ExecutionTime = 0.2 s  ClockTime = 0 s

Time = 0.77

Courant Number mean: 0.028792538 max: 0.15496917
smoothSolver:  Solving for Ux, Initial residual = 0.0022849447, Final residual = 2.5387608e-11, No Iterations 3
smoothSolver:  Solving for Uy, Initial residual = 0.0028733354, Final residual = 3.6550444e-11, No Iterations 3
DICPCG:  Solving for p, Initial residual = 0.0022021972, Final residual = 8.8354324e-07, No Iterations 27
time step continuity errors : sum local = 2.9248026e-10, global = 1.3126893e-19, cumulative = -3.2065491e-19
ExecutionTime = 0.2 s  ClockTime = 0 s

Time = 0.78

Courant Number mean: 0.028912332 max: 0.15517834
smoothSolver:  Solving for Ux, Initial residual = 0.0022474815, Final residual = 2.5009479e-11, No Iterations 3
smoothSolver:  Solving for Uy, Initial residual = 0.0028276654, Final residual = 3.5935668e-11, No Iterations 3
DICPCG:  Solving for p, Initial residual = 0.0018548771, Final residual = 9.4042123e-07, No Iterations 27
time step continuity errors : sum local = 3.1148847e-10, global = -7.840984e-20, cumulative = -3.9906475e-19
ExecutionTime = 0.21 s  ClockTime = 0 s

Time = 0.79

Courant Number mean: 0.029030708 max: 0.15538277
smoothSolver:  Solving for Ux, Initial residual = 0.0022111952, Final residual = 2.4649803e-11, No Iterations 3
smoothSolver:  Solving for Uy, Initial residual = 0.0027850891, Final residual = 3.5362399e-11, No Iterations 3
DICPCG:  Solving for p, Initial residual = 0.0019165881, Final residual = 8.6006134e-07, No Iterations 27
time step continuity errors : sum local = 2.8543282e-10, global = -3.1607034e-20, cumulative = -4.3067179e-19
ExecutionTime = 0.21 s  ClockTime = 0 s

Time = 0.8

Courant Number mean: 0.029147248 max: 0.15558262
smoothSolver:  Solving for Ux, Initial residual = 0.002175589, Final residual = 2.4305329e-11, No Iterations 3
smoothSolver:  Solving for Uy, Initial residual = 0.0027443794, Final residual = 3.4813299e-11, No Iterations 3
DICPCG:  Solving for p, Initial residual = 0.0017243243, Final residual = 8.5415878e-07, No Iterations 27
time step continuity errors : sum local = 2.8393448e-10, global = -9.6366938e-20, cumulative = -5.2703872e-19
ExecutionTime = 0.21 s  ClockTime = 0 s

Time = 0.81

Courant Number mean: 0.029261971 max: 0.155778
smoothSolver:  Solving for Ux, Initial residual = 0.0021410542, Final residual = 2.3967788e-11, No Iterations 3
smoothSolver:  Solving for Uy, Initial residual = 0.0027043217, Final residual = 3.4275345e-11, No Iterations 3
DICPCG:  Solving for p, Initial residual = 0.0016995532, Final residual = 8.3035515e-07, No Iterations 27
time step continuity errors : sum local = 2.7647461e-10, global = 1.5310121e-20, cumulative = -5.117286e-19
ExecutionTime = 0.21 s  ClockTime = 0 s

Time = 0.82

Courant Number mean: 0.029375187 max: 0.15596904
smoothSolver:  Solving for Ux, Initial residual = 0.0021073437, Final residual = 2.3639223e-11, No Iterations 3
smoothSolver:  Solving for Uy, Initial residual = 0.0026652224, Final residual = 3.3751443e-11, No Iterations 3
DICPCG:  Solving for p, Initial residual = 0.0016751903, Final residual = 8.1258818e-07, No Iterations 27
time step continuity errors : sum local = 2.7098245e-10, global = -4.8096648e-20, cumulative = -5.5982525e-19
ExecutionTime = 0.21 s  ClockTime = 0 s

Time = 0.83

Courant Number mean: 0.029486764 max: 0.15615587
smoothSolver:  Solving for Ux, Initial residual = 0.0020745448, Final residual = 2.3317364e-11, No Iterations 3
smoothSolver:  Solving for Uy, Initial residual = 0.0026270221, Final residual = 3.3240773e-11, No Iterations 3
DICPCG:  Solving for p, Initial residual = 0.0016550325, Final residual = 7.9494587e-07, No Iterations 27
time step continuity errors : sum local = 2.6550293e-10, global = -4.9483665e-20, cumulative = -6.0930892e-19
ExecutionTime = 0.21 s  ClockTime = 0 s

Time = 0.84

Courant Number mean: 0.029596647 max: 0.15633864
smoothSolver:  Solving for Ux, Initial residual = 0.002042826, Final residual = 9.9810006e-09, No Iterations 2
smoothSolver:  Solving for Uy, Initial residual = 0.0025896775, Final residual = 3.2742592e-11, No Iterations 3
DICPCG:  Solving for p, Initial residual = 0.0016356011, Final residual = 7.7821695e-07, No Iterations 27
time step continuity errors : sum local = 2.6029934e-10, global = -1.2323271e-19, cumulative = -7.3254162e-19
ExecutionTime = 0.21 s  ClockTime = 0 s

Time = 0.85

Courant Number mean: 0.029704875 max: 0.15651746
smoothSolver:  Solving for Ux, Initial residual = 0.0020118814, Final residual = 9.8469826e-09, No Iterations 2
smoothSolver:  Solving for Uy, Initial residual = 0.0025531563, Final residual = 3.2256381e-11, No Iterations 3
DICPCG:  Solving for p, Initial residual = 0.0016162728, Final residual = 7.6230488e-07, No Iterations 27
time step continuity errors : sum local = 2.5534102e-10, global = 5.02587e-20, cumulative = -6.8228292e-19
ExecutionTime = 0.21 s  ClockTime = 0 s

Time = 0.86

Courant Number mean: 0.02981149 max: 0.15669246
smoothSolver:  Solving for Ux, Initial residual = 0.0019815803, Final residual = 9.7156183e-09, No Iterations 2
smoothSolver:  Solving for Uy, Initial residual = 0.0025174702, Final residual = 3.1782197e-11, No Iterations 3
DICPCG:  Solving for p, Initial residual = 0.001597039, Final residual = 7.4671633e-07, No Iterations 27
time step continuity errors : sum local = 2.5047848e-10, global = 5.5230783e-20, cumulative = -6.2705214e-19
ExecutionTime = 0.22 s  ClockTime = 0 s

Time = 0.87

Courant Number mean: 0.029916529 max: 0.15686375
smoothSolver:  Solving for Ux, Initial residual = 0.0019520737, Final residual = 9.5868353e-09, No Iterations 2
smoothSolver:  Solving for Uy, Initial residual = 0.0024826075, Final residual = 3.1319837e-11, No Iterations 3
DICPCG:  Solving for p, Initial residual = 0.0015780969, Final residual = 7.3129561e-07, No Iterations 27
time step continuity errors : sum local = 2.4566175e-10, global = 5.0203643e-20, cumulative = -5.768485e-19
ExecutionTime = 0.22 s  ClockTime = 0 s

Time = 0.88

Courant Number mean: 0.03002003 max: 0.15703144
smoothSolver:  Solving for Ux, Initial residual = 0.001923244, Final residual = 9.4605608e-09, No Iterations 2
smoothSolver:  Solving for Uy, Initial residual = 0.0024485378, Final residual = 3.0868836e-11, No Iterations 3
DICPCG:  Solving for p, Initial residual = 0.0015598765, Final residual = 7.1587685e-07, No Iterations 27
time step continuity errors : sum local = 2.4082462e-10, global = -5.9190662e-20, cumulative = -6.3603916e-19
ExecutionTime = 0.22 s  ClockTime = 0 s

Time = 0.89

Courant Number mean: 0.03012203 max: 0.15719565
smoothSolver:  Solving for Ux, Initial residual = 0.0018952221, Final residual = 9.3377773e-09, No Iterations 2
smoothSolver:  Solving for Uy, Initial residual = 0.0024152352, Final residual = 3.0428811e-11, No Iterations 3
DICPCG:  Solving for p, Initial residual = 0.0015419494, Final residual = 7.0051366e-07, No Iterations 27
time step continuity errors : sum local = 2.3598461e-10, global = -6.5897046e-20, cumulative = -7.019362e-19
ExecutionTime = 0.22 s  ClockTime = 0 s

Time = 0.9

Courant Number mean: 0.030222564 max: 0.15735646
smoothSolver:  Solving for Ux, Initial residual = 0.001867897, Final residual = 9.2177316e-09, No Iterations 2
smoothSolver:  Solving for Uy, Initial residual = 0.0023826801, Final residual = 2.9999459e-11, No Iterations 3
DICPCG:  Solving for p, Initial residual = 0.0015242566, Final residual = 6.8528869e-07, No Iterations 27
time step continuity errors : sum local = 2.3117026e-10, global = 4.9204144e-20, cumulative = -6.5273206e-19
ExecutionTime = 0.22 s  ClockTime = 0 s

Time = 0.91

Courant Number mean: 0.030321666 max: 0.15751398
smoothSolver:  Solving for Ux, Initial residual = 0.0018412662, Final residual = 9.0997054e-09, No Iterations 2
smoothSolver:  Solving for Uy, Initial residual = 0.0023508247, Final residual = 2.9580127e-11, No Iterations 3
DICPCG:  Solving for p, Initial residual = 0.0015079447, Final residual = 6.7117268e-07, No Iterations 27
time step continuity errors : sum local = 2.2670688e-10, global = 6.0901669e-20, cumulative = -5.9183039e-19
ExecutionTime = 0.22 s  ClockTime = 0 s

Time = 0.92

Courant Number mean: 0.030419369 max: 0.1576683
smoothSolver:  Solving for Ux, Initial residual = 0.0018153444, Final residual = 8.9835919e-09, No Iterations 2
smoothSolver:  Solving for Uy, Initial residual = 0.0023196385, Final residual = 2.9170364e-11, No Iterations 3
DICPCG:  Solving for p, Initial residual = 0.0014962007, Final residual = 6.5858453e-07, No Iterations 27
time step continuity errors : sum local = 2.2273948e-10, global = 1.4059053e-19, cumulative = -4.5123986e-19
ExecutionTime = 0.22 s  ClockTime = 0 s

Time = 0.93

Courant Number mean: 0.030515705 max: 0.15781951
smoothSolver:  Solving for Ux, Initial residual = 0.0017901886, Final residual = 8.8695443e-09, No Iterations 2
smoothSolver:  Solving for Uy, Initial residual = 0.0022891294, Final residual = 2.8770226e-11, No Iterations 3
DICPCG:  Solving for p, Initial residual = 0.0014994665, Final residual = 6.5415301e-07, No Iterations 27
time step continuity errors : sum local = 2.2151083e-10, global = -1.509836e-21, cumulative = -4.527497e-19
ExecutionTime = 0.23 s  ClockTime = 0 s

Time = 0.94

Courant Number mean: 0.030610734 max: 0.15796769
smoothSolver:  Solving for Ux, Initial residual = 0.0017656021, Final residual = 8.7576052e-09, No Iterations 2
smoothSolver:  Solving for Uy, Initial residual = 0.0022593622, Final residual = 2.8379484e-11, No Iterations 3
DICPCG:  Solving for p, Initial residual = 0.0015050574, Final residual = 6.4026069e-07, No Iterations 27
time step continuity errors : sum local = 2.1700964e-10, global = 7.3734215e-21, cumulative = -4.4537628e-19
ExecutionTime = 0.23 s  ClockTime = 0 s

Time = 0.95

Courant Number mean: 0.030704468 max: 0.15811293
smoothSolver:  Solving for Ux, Initial residual = 0.0017418088, Final residual = 8.6478107e-09, No Iterations 2
smoothSolver:  Solving for Uy, Initial residual = 0.0022302964, Final residual = 2.7998696e-11, No Iterations 3
DICPCG:  Solving for p, Initial residual = 0.0014720688, Final residual = 6.3523462e-07, No Iterations 27
time step continuity errors : sum local = 2.155803e-10, global = 1.7297895e-19, cumulative = -2.7239733e-19
ExecutionTime = 0.23 s  ClockTime = 0 s

Time = 0.96

Courant Number mean: 0.030796928 max: 0.15825531
smoothSolver:  Solving for Ux, Initial residual = 0.0017184677, Final residual = 8.5410741e-09, No Iterations 2
smoothSolver:  Solving for Uy, Initial residual = 0.0022018962, Final residual = 2.7627246e-11, No Iterations 3
DICPCG:  Solving for p, Initial residual = 0.0014977512, Final residual = 6.5249324e-07, No Iterations 27
time step continuity errors : sum local = 2.216367e-10, global = -7.437161e-20, cumulative = -3.4676894e-19
ExecutionTime = 0.23 s  ClockTime = 0 s

Time = 0.97

Courant Number mean: 0.030888151 max: 0.1583949
smoothSolver:  Solving for Ux, Initial residual = 0.0016957541, Final residual = 8.4370713e-09, No Iterations 2
smoothSolver:  Solving for Uy, Initial residual = 0.0021742519, Final residual = 2.7267046e-11, No Iterations 3
DICPCG:  Solving for p, Initial residual = 0.0015376251, Final residual = 6.7045392e-07, No Iterations 27
time step continuity errors : sum local = 2.2798824e-10, global = 1.421533e-19, cumulative = -2.0461563e-19
ExecutionTime = 0.23 s  ClockTime = 0 s

Time = 0.98

Courant Number mean: 0.030978319 max: 0.15853176
smoothSolver:  Solving for Ux, Initial residual = 0.0016735408, Final residual = 8.335125e-09, No Iterations 2
smoothSolver:  Solving for Uy, Initial residual = 0.0021473816, Final residual = 2.6918512e-11, No Iterations 3
DICPCG:  Solving for p, Initial residual = 0.001662265, Final residual = 7.8178995e-07, No Iterations 26
time step continuity errors : sum local = 2.6382584e-10, global = -1.3397943e-20, cumulative = -2.1801358e-19
ExecutionTime = 0.23 s  ClockTime = 0 s

Time = 0.99

Courant Number mean: 0.031067458 max: 0.15866605
smoothSolver:  Solving for Ux, Initial residual = 0.001652363, Final residual = 8.2325217e-09, No Iterations 2
smoothSolver:  Solving for Uy, Initial residual = 0.0021189653, Final residual = 2.654117e-11, No Iterations 3
DICPCG:  Solving for p, Initial residual = 0.0015165921, Final residual = 8.5791116e-07, No Iterations 26
time step continuity errors : sum local = 2.9105936e-10, global = -2.006494e-19, cumulative = -4.1866298e-19
ExecutionTime = 0.23 s  ClockTime = 0 s

Time = 1

Courant Number mean: 0.031155434 max: 0.15879782
smoothSolver:  Solving for Ux, Initial residual = 0.0016316978, Final residual = 8.1327254e-09, No Iterations 2
smoothSolver:  Solving for Uy, Initial residual = 0.0020918831, Final residual = 2.6185104e-11, No Iterations 3
DICPCG:  Solving for p, Initial residual = 0.0013680234, Final residual = 9.0218751e-07, No Iterations 26
time step continuity errors : sum local = 3.0731198e-10, global = 2.2690954e-19, cumulative = -1.9175344e-19
ExecutionTime = 0.24 s  ClockTime = 0 s

Time = 1.01

Courant Number mean: 0.031242263 max: 0.15892712
smoothSolver:  Solving for Ux, Initial residual = 0.0016112095, Final residual = 8.0356576e-09, No Iterations 2
smoothSolver:  Solving for Uy, Initial residual = 0.0020661279, Final residual = 2.5850784e-11, No Iterations 3
DICPCG:  Solving for p, Initial residual = 0.0013512366, Final residual = 8.6369141e-07, No Iterations 26
time step continuity errors : sum local = 2.9441211e-10, global = -7.8117614e-21, cumulative = -1.995652e-19
ExecutionTime = 0.24 s  ClockTime = 0 s

Time = 1.02

Courant Number mean: 0.031327965 max: 0.159054
smoothSolver:  Solving for Ux, Initial residual = 0.0015910842, Final residual = 7.9401459e-09, No Iterations 2
smoothSolver:  Solving for Uy, Initial residual = 0.0020409029, Final residual = 2.5523392e-11, No Iterations 3
DICPCG:  Solving for p, Initial residual = 0.0013586725, Final residual = 8.125802e-07, No Iterations 26
time step continuity errors : sum local = 2.771272e-10, global = 1.4950131e-20, cumulative = -1.8461507e-19
ExecutionTime = 0.24 s  ClockTime = 0 s

Time = 1.03

Courant Number mean: 0.031412593 max: 0.1591786
smoothSolver:  Solving for Ux, Initial residual = 0.0015717908, Final residual = 7.8467347e-09, No Iterations 2
smoothSolver:  Solving for Uy, Initial residual = 0.0020159596, Final residual = 2.5199551e-11, No Iterations 3
DICPCG:  Solving for p, Initial residual = 0.0016918902, Final residual = 7.2479292e-07, No Iterations 26
time step continuity errors : sum local = 2.4548529e-10, global = 9.0574292e-20, cumulative = -9.4040775e-20
ExecutionTime = 0.24 s  ClockTime = 0 s

Time = 1.04

Courant Number mean: 0.031497425 max: 0.15930147
smoothSolver:  Solving for Ux, Initial residual = 0.0015528537, Final residual = 7.7527729e-09, No Iterations 2
smoothSolver:  Solving for Uy, Initial residual = 0.0019898578, Final residual = 2.4852216e-11, No Iterations 3
DICPCG:  Solving for p, Initial residual = 0.001968398, Final residual = 7.1337861e-07, No Iterations 27
time step continuity errors : sum local = 2.4459465e-10, global = 7.7005883e-21, cumulative = -8.6340187e-20
ExecutionTime = 0.24 s  ClockTime = 0 s

Time = 1.05

Courant Number mean: 0.031582253 max: 0.15942205
smoothSolver:  Solving for Ux, Initial residual = 0.0015341202, Final residual = 7.6660593e-09, No Iterations 2
smoothSolver:  Solving for Uy, Initial residual = 0.0019679218, Final residual = 2.4567849e-11, No Iterations 3
DICPCG:  Solving for p, Initial residual = 0.0014343098, Final residual = 6.1106933e-07, No Iterations 27
time step continuity errors : sum local = 2.0964848e-10, global = -1.642651e-19, cumulative = -2.5060529e-19
ExecutionTime = 0.24 s  ClockTime = 0 s

Time = 1.06

Courant Number mean: 0.031666847 max: 0.15953991
smoothSolver:  Solving for Ux, Initial residual = 0.0015159686, Final residual = 7.5794807e-09, No Iterations 2
smoothSolver:  Solving for Uy, Initial residual = 0.0019455348, Final residual = 2.4288005e-11, No Iterations 3
DICPCG:  Solving for p, Initial residual = 0.0016561283, Final residual = 9.6846535e-07, No Iterations 26
time step continuity errors : sum local = 3.3095712e-10, global = 7.9130876e-20, cumulative = -1.7147441e-19
ExecutionTime = 0.24 s  ClockTime = 0 s

Time = 1.07

Courant Number mean: 0.031751661 max: 0.15965517
smoothSolver:  Solving for Ux, Initial residual = 0.0014982123, Final residual = 7.4923943e-09, No Iterations 2
smoothSolver:  Solving for Uy, Initial residual = 0.0019223825, Final residual = 2.3993644e-11, No Iterations 3
DICPCG:  Solving for p, Initial residual = 0.0015029391, Final residual = 5.7563257e-07, No Iterations 27
time step continuity errors : sum local = 1.9790506e-10, global = 1.2302942e-19, cumulative = -4.8444992e-20
ExecutionTime = 0.24 s  ClockTime = 0 s

Time = 1.08

Courant Number mean: 0.031835536 max: 0.15976799
smoothSolver:  Solving for Ux, Initial residual = 0.0014807535, Final residual = 7.4095265e-09, No Iterations 2
smoothSolver:  Solving for Uy, Initial residual = 0.0019011715, Final residual = 2.372406e-11, No Iterations 3
DICPCG:  Solving for p, Initial residual = 0.0012791533, Final residual = 6.7644348e-07, No Iterations 26
time step continuity errors : sum local = 2.3171832e-10, global = 1.9423842e-19, cumulative = 1.4579343e-19
ExecutionTime = 0.24 s  ClockTime = 0 s

Time = 1.09

Courant Number mean: 0.031918425 max: 0.15987873
smoothSolver:  Solving for Ux, Initial residual = 0.0014635851, Final residual = 7.3253275e-09, No Iterations 2
smoothSolver:  Solving for Uy, Initial residual = 0.0018786667, Final residual = 2.343446e-11, No Iterations 3
DICPCG:  Solving for p, Initial residual = 0.001322014, Final residual = 6.5819974e-07, No Iterations 26
time step continuity errors : sum local = 2.2537794e-10, global = -1.7265814e-19, cumulative = -2.686471e-20
ExecutionTime = 0.25 s  ClockTime = 0 s

Time = 1.1

Courant Number mean: 0.032000323 max: 0.1599876
smoothSolver:  Solving for Ux, Initial residual = 0.0014470194, Final residual = 7.2440904e-09, No Iterations 2
smoothSolver:  Solving for Uy, Initial residual = 0.0018562547, Final residual = 9.8794366e-09, No Iterations 2
DICPCG:  Solving for p, Initial residual = 0.0015905675, Final residual = 6.2074891e-07, No Iterations 26
time step continuity errors : sum local = 2.1138269e-10, global = -4.0865846e-19, cumulative = -4.3552317e-19
ExecutionTime = 0.25 s  ClockTime = 0 s

Time = 1.11

Courant Number mean: 0.032081665 max: 0.16009506
smoothSolver:  Solving for Ux, Initial residual = 0.0014309924, Final residual = 7.1630076e-09, No Iterations 2
smoothSolver:  Solving for Uy, Initial residual = 0.0018325742, Final residual = 9.7476106e-09, No Iterations 2
DICPCG:  Solving for p, Initial residual = 0.0012117099, Final residual = 7.9551941e-07, No Iterations 26
time step continuity errors : sum local = 2.7397139e-10, global = 2.173656e-19, cumulative = -2.1815757e-19
ExecutionTime = 0.25 s  ClockTime = 0 s

Time = 1.12

Courant Number mean: 0.032162973 max: 0.16020053
smoothSolver:  Solving for Ux, Initial residual = 0.0014149248, Final residual = 7.0854349e-09, No Iterations 2
smoothSolver:  Solving for Uy, Initial residual = 0.0018121968, Final residual = 9.6372948e-09, No Iterations 2
DICPCG:  Solving for p, Initial residual = 0.0018609016, Final residual = 7.8573739e-07, No Iterations 27
time step continuity errors : sum local = 2.713405e-10, global = -7.3896213e-20, cumulative = -2.9205378e-19
ExecutionTime = 0.25 s  ClockTime = 0 s

Time = 1.13

Courant Number mean: 0.032243512 max: 0.16030293
smoothSolver:  Solving for Ux, Initial residual = 0.0013986756, Final residual = 7.0115438e-09, No Iterations 2
smoothSolver:  Solving for Uy, Initial residual = 0.0017972154, Final residual = 9.5573651e-09, No Iterations 2
DICPCG:  Solving for p, Initial residual = 0.0012037923, Final residual = 5.6557067e-07, No Iterations 26
time step continuity errors : sum local = 1.9433856e-10, global = 8.7815082e-20, cumulative = -2.042387e-19
ExecutionTime = 0.25 s  ClockTime = 0 s

Time = 1.14

Courant Number mean: 0.032323999 max: 0.16040333
smoothSolver:  Solving for Ux, Initial residual = 0.0013832241, Final residual = 6.93672e-09, No Iterations 2
smoothSolver:  Solving for Uy, Initial residual = 0.0017768968, Final residual = 9.4461138e-09, No Iterations 2
DICPCG:  Solving for p, Initial residual = 0.0011859069, Final residual = 5.950963e-07, No Iterations 26
time step continuity errors : sum local = 2.0494166e-10, global = 1.1172365e-20, cumulative = -1.9306634e-19
ExecutionTime = 0.25 s  ClockTime = 0 s

Time = 1.15

Courant Number mean: 0.032403806 max: 0.16050203
smoothSolver:  Solving for Ux, Initial residual = 0.0013680888, Final residual = 6.8653603e-09, No Iterations 2
smoothSolver:  Solving for Uy, Initial residual = 0.0017570311, Final residual = 9.3381652e-09, No Iterations 2
DICPCG:  Solving for p, Initial residual = 0.0011562845, Final residual = 5.7028897e-07, No Iterations 26
time step continuity errors : sum local = 1.9654355e-10, global = 1.5384448e-19, cumulative = -3.9221862e-20
ExecutionTime = 0.25 s  ClockTime = 0 s

Time = 1.16

Courant Number mean: 0.032482709 max: 0.16059916
smoothSolver:  Solving for Ux, Initial residual = 0.0013531895, Final residual = 6.7955274e-09, No Iterations 2
smoothSolver:  Solving for Uy, Initial residual = 0.0017373683, Final residual = 9.2308587e-09, No Iterations 2
DICPCG:  Solving for p, Initial residual = 0.0011436032, Final residual = 5.66384e-07, No Iterations 26
time step continuity errors : sum local = 1.9536038e-10, global = 2.5374778e-19, cumulative = 2.1452592e-19
ExecutionTime = 0.25 s  ClockTime = 0 s

Time = 1.17

Courant Number mean: 0.03256072 max: 0.16069474
smoothSolver:  Solving for Ux, Initial residual = 0.0013385268, Final residual = 6.7275445e-09, No Iterations 2
smoothSolver:  Solving for Uy, Initial residual = 0.0017180998, Final residual = 9.1255935e-09, No Iterations 2
DICPCG:  Solving for p, Initial residual = 0.0011316869, Final residual = 5.610334e-07, No Iterations 26
time step continuity errors : sum local = 1.9366908e-10, global = 7.722717e-20, cumulative = 2.9175309e-19
ExecutionTime = 0.26 s  ClockTime = 0 s

Time = 1.18

Courant Number mean: 0.032637855 max: 0.16078876
smoothSolver:  Solving for Ux, Initial residual = 0.0013242732, Final residual = 6.6624326e-09, No Iterations 2
smoothSolver:  Solving for Uy, Initial residual = 0.0016991849, Final residual = 9.0224082e-09, No Iterations 2
DICPCG:  Solving for p, Initial residual = 0.0011199359, Final residual = 5.539975e-07, No Iterations 26
time step continuity errors : sum local = 1.9138296e-10, global = -3.0232194e-20, cumulative = 2.6152089e-19
ExecutionTime = 0.26 s  ClockTime = 0 s

Time = 1.19

Courant Number mean: 0.032714131 max: 0.16088123
smoothSolver:  Solving for Ux, Initial residual = 0.0013102113, Final residual = 6.6003745e-09, No Iterations 2
smoothSolver:  Solving for Uy, Initial residual = 0.0016806209, Final residual = 8.9212672e-09, No Iterations 2
DICPCG:  Solving for p, Initial residual = 0.0011085807, Final residual = 5.4618673e-07, No Iterations 26
time step continuity errors : sum local = 1.8881509e-10, global = 8.8028958e-20, cumulative = 3.4954985e-19
ExecutionTime = 0.26 s  ClockTime = 0 s

Time = 1.2

Courant Number mean: 0.032789565 max: 0.16097217
smoothSolver:  Solving for Ux, Initial residual = 0.0012963764, Final residual = 6.5390146e-09, No Iterations 2
smoothSolver:  Solving for Uy, Initial residual = 0.0016623937, Final residual = 8.8220722e-09, No Iterations 2
DICPCG:  Solving for p, Initial residual = 0.0010987066, Final residual = 5.3929548e-07, No Iterations 26
time step continuity errors : sum local = 1.8654811e-10, global = 9.7545373e-20, cumulative = 4.4709522e-19
ExecutionTime = 0.26 s  ClockTime = 0 s

Time = 1.21

Courant Number mean: 0.032864173 max: 0.1610616
smoothSolver:  Solving for Ux, Initial residual = 0.0012826924, Final residual = 6.4783102e-09, No Iterations 2
smoothSolver:  Solving for Uy, Initial residual = 0.0016444785, Final residual = 8.7246685e-09, No Iterations 2
DICPCG:  Solving for p, Initial residual = 0.001107277, Final residual = 5.3764239e-07, No Iterations 26
time step continuity errors : sum local = 1.8606427e-10, global = -1.6188917e-20, cumulative = 4.3090631e-19
ExecutionTime = 0.26 s  ClockTime = 0 s

Time = 1.22

Courant Number mean: 0.032937981 max: 0.16114954
smoothSolver:  Solving for Ux, Initial residual = 0.0012691774, Final residual = 6.4183663e-09, No Iterations 2
smoothSolver:  Solving for Uy, Initial residual = 0.0016268865, Final residual = 8.6288624e-09, No Iterations 2
DICPCG:  Solving for p, Initial residual = 0.00113941, Final residual = 5.0062446e-07, No Iterations 26
time step continuity errors : sum local = 1.7324706e-10, global = -1.244609e-21, cumulative = 4.296617e-19
ExecutionTime = 0.26 s  ClockTime = 0 s

Time = 1.23

Courant Number mean: 0.033011001 max: 0.16123603
smoothSolver:  Solving for Ux, Initial residual = 0.0012558355, Final residual = 6.3592083e-09, No Iterations 2
smoothSolver:  Solving for Uy, Initial residual = 0.0016096395, Final residual = 8.5345463e-09, No Iterations 2
DICPCG:  Solving for p, Initial residual = 0.0011802545, Final residual = 5.0134185e-07, No Iterations 26
time step continuity errors : sum local = 1.7345964e-10, global = 1.942183e-19, cumulative = 6.2388e-19
ExecutionTime = 0.26 s  ClockTime = 0 s

Time = 1.24

Courant Number mean: 0.033083235 max: 0.16132112
smoothSolver:  Solving for Ux, Initial residual = 0.001242755, Final residual = 6.300781e-09, No Iterations 2
smoothSolver:  Solving for Uy, Initial residual = 0.001592671, Final residual = 8.4409951e-09, No Iterations 2
DICPCG:  Solving for p, Initial residual = 0.0013659033, Final residual = 5.0643632e-07, No Iterations 26
time step continuity errors : sum local = 1.746792e-10, global = 7.8599893e-20, cumulative = 7.0247989e-19
ExecutionTime = 0.26 s  ClockTime = 0 s

Time = 1.25

Courant Number mean: 0.033154695 max: 0.16140492
smoothSolver:  Solving for Ux, Initial residual = 0.0012297764, Final residual = 6.2428567e-09, No Iterations 2
smoothSolver:  Solving for Uy, Initial residual = 0.0015756961, Final residual = 8.3462415e-09, No Iterations 2
DICPCG:  Solving for p, Initial residual = 0.0017384235, Final residual = 5.7222141e-07, No Iterations 26
time step continuity errors : sum local = 1.9767991e-10, global = -6.6969602e-20, cumulative = 6.3551029e-19
ExecutionTime = 0.26 s  ClockTime = 0 s

Time = 1.26

Courant Number mean: 0.033226582 max: 0.16148766
smoothSolver:  Solving for Ux, Initial residual = 0.0012170605, Final residual = 6.1854402e-09, No Iterations 2
smoothSolver:  Solving for Uy, Initial residual = 0.0015578414, Final residual = 8.2452068e-09, No Iterations 2
DICPCG:  Solving for p, Initial residual = 0.0026558971, Final residual = 9.2960174e-07, No Iterations 27
time step continuity errors : sum local = 3.2376501e-10, global = 5.4758033e-20, cumulative = 6.9026832e-19
ExecutionTime = 0.26 s  ClockTime = 0 s

Time = 1.27

Courant Number mean: 0.033298373 max: 0.16156807
smoothSolver:  Solving for Ux, Initial residual = 0.0012056306, Final residual = 6.132114e-09, No Iterations 2
smoothSolver:  Solving for Uy, Initial residual = 0.0015455962, Final residual = 8.1874405e-09, No Iterations 2
DICPCG:  Solving for p, Initial residual = 0.0013819653, Final residual = 4.7957092e-07, No Iterations 26
time step continuity errors : sum local = 1.6586655e-10, global = -9.5667072e-21, cumulative = 6.8070162e-19
ExecutionTime = 0.26 s  ClockTime = 0 s

Time = 1.28

Courant Number mean: 0.033370168 max: 0.1616469
smoothSolver:  Solving for Ux, Initial residual = 0.001194017, Final residual = 6.0776512e-09, No Iterations 2
smoothSolver:  Solving for Uy, Initial residual = 0.0015292549, Final residual = 8.0993398e-09, No Iterations 2
DICPCG:  Solving for p, Initial residual = 0.0011041286, Final residual = 5.3044487e-07, No Iterations 26
time step continuity errors : sum local = 1.8395863e-10, global = -6.6262064e-20, cumulative = 6.1443955e-19
ExecutionTime = 0.27 s  ClockTime = 0 s

Time = 1.29

Courant Number mean: 0.033441248 max: 0.16172448
smoothSolver:  Solving for Ux, Initial residual = 0.0011816262, Final residual = 6.0234425e-09, No Iterations 2
smoothSolver:  Solving for Uy, Initial residual = 0.0015144178, Final residual = 8.0180251e-09, No Iterations 2
DICPCG:  Solving for p, Initial residual = 0.00099863372, Final residual = 4.5501798e-07, No Iterations 26
time step continuity errors : sum local = 1.5824134e-10, global = 3.7235039e-21, cumulative = 6.1816306e-19
ExecutionTime = 0.27 s  ClockTime = 0 s

Time = 1.3

Courant Number mean: 0.033511611 max: 0.16180088
smoothSolver:  Solving for Ux, Initial residual = 0.0011695424, Final residual = 5.9696667e-09, No Iterations 2
smoothSolver:  Solving for Uy, Initial residual = 0.0014992721, Final residual = 7.9346245e-09, No Iterations 2
DICPCG:  Solving for p, Initial residual = 0.000988987, Final residual = 4.3126035e-07, No Iterations 26
time step continuity errors : sum local = 1.5004212e-10, global = 3.7097131e-20, cumulative = 6.5526019e-19
ExecutionTime = 0.27 s  ClockTime = 0 s

Time = 1.31

Courant Number mean: 0.033581261 max: 0.16187612
smoothSolver:  Solving for Ux, Initial residual = 0.0011577634, Final residual = 5.916987e-09, No Iterations 2
smoothSolver:  Solving for Uy, Initial residual = 0.0014843047, Final residual = 7.852636e-09, No Iterations 2
DICPCG:  Solving for p, Initial residual = 0.00098403704, Final residual = 4.2409642e-07, No Iterations 26
time step continuity errors : sum local = 1.4761524e-10, global = 1.1467238e-20, cumulative = 6.6672742e-19
ExecutionTime = 0.27 s  ClockTime = 0 s

Time = 1.32

Courant Number mean: 0.033650202 max: 0.1619502
smoothSolver:  Solving for Ux, Initial residual = 0.0011462364, Final residual = 5.8652053e-09, No Iterations 2
smoothSolver:  Solving for Uy, Initial residual = 0.0014695332, Final residual = 7.7720823e-09, No Iterations 2
DICPCG:  Solving for p, Initial residual = 0.00098158371, Final residual = 4.2629282e-07, No Iterations 26
time step continuity errors : sum local = 1.484462e-10, global = -5.5320516e-20, cumulative = 6.1140691e-19
ExecutionTime = 0.27 s  ClockTime = 0 s

Time = 1.33

Courant Number mean: 0.033718447 max: 0.1620231
smoothSolver:  Solving for Ux, Initial residual = 0.0011349855, Final residual = 5.8141549e-09, No Iterations 2
smoothSolver:  Solving for Uy, Initial residual = 0.0014550051, Final residual = 7.6930981e-09, No Iterations 2
DICPCG:  Solving for p, Initial residual = 0.00098282384, Final residual = 4.2944137e-07, No Iterations 26
time step continuity errors : sum local = 1.4963268e-10, global = -9.2697962e-20, cumulative = 5.1870895e-19
ExecutionTime = 0.27 s  ClockTime = 0 s

Time = 1.34

Courant Number mean: 0.033786005 max: 0.16209484
smoothSolver:  Solving for Ux, Initial residual = 0.0011239893, Final residual = 5.7641525e-09, No Iterations 2
smoothSolver:  Solving for Uy, Initial residual = 0.0014407073, Final residual = 7.6157767e-09, No Iterations 2
DICPCG:  Solving for p, Initial residual = 0.00099780411, Final residual = 4.4883998e-07, No Iterations 26
time step continuity errors : sum local = 1.564685e-10, global = 1.0789029e-19, cumulative = 6.2659924e-19
ExecutionTime = 0.27 s  ClockTime = 0 s

Time = 1.35

Courant Number mean: 0.033852894 max: 0.16216543
smoothSolver:  Solving for Ux, Initial residual = 0.0011132579, Final residual = 5.7149982e-09, No Iterations 2
smoothSolver:  Solving for Uy, Initial residual = 0.0014266863, Final residual = 7.540322e-09, No Iterations 2
DICPCG:  Solving for p, Initial residual = 0.00098255381, Final residual = 4.2135737e-07, No Iterations 26
time step continuity errors : sum local = 1.4690608e-10, global = 3.2523206e-19, cumulative = 9.518313e-19
ExecutionTime = 0.27 s  ClockTime = 0 s

Time = 1.36

Courant Number mean: 0.033919164 max: 0.16223488
smoothSolver:  Solving for Ux, Initial residual = 0.0011026561, Final residual = 5.6664282e-09, No Iterations 2
smoothSolver:  Solving for Uy, Initial residual = 0.0014128307, Final residual = 7.465412e-09, No Iterations 2
DICPCG:  Solving for p, Initial residual = 0.0011281062, Final residual = 4.2395767e-07, No Iterations 26
time step continuity errors : sum local = 1.4714533e-10, global = -3.6080692e-20, cumulative = 9.1575061e-19
ExecutionTime = 0.28 s  ClockTime = 0 s

Time = 1.37

Courant Number mean: 0.033985096 max: 0.16230323
smoothSolver:  Solving for Ux, Initial residual = 0.0010919794, Final residual = 5.6168125e-09, No Iterations 2
smoothSolver:  Solving for Uy, Initial residual = 0.0013986663, Final residual = 7.3856109e-09, No Iterations 2
DICPCG:  Solving for p, Initial residual = 0.0011711262, Final residual = 4.6724931e-07, No Iterations 26
time step continuity errors : sum local = 1.6241278e-10, global = 6.1888992e-20, cumulative = 9.776396e-19
ExecutionTime = 0.28 s  ClockTime = 0 s

Time = 1.38

Courant Number mean: 0.034050394 max: 0.16237049
smoothSolver:  Solving for Ux, Initial residual = 0.0010818625, Final residual = 5.5688614e-09, No Iterations 2
smoothSolver:  Solving for Uy, Initial residual = 0.0013851835, Final residual = 7.3120537e-09, No Iterations 2
DICPCG:  Solving for p, Initial residual = 0.00091238235, Final residual = 3.8555459e-07, No Iterations 26
time step continuity errors : sum local = 1.3473424e-10, global = -9.515899e-20, cumulative = 8.8248061e-19
ExecutionTime = 0.28 s  ClockTime = 0 s

Time = 1.39

Courant Number mean: 0.034115053 max: 0.16243666
smoothSolver:  Solving for Ux, Initial residual = 0.0010718175, Final residual = 5.5219368e-09, No Iterations 2
smoothSolver:  Solving for Uy, Initial residual = 0.0013719266, Final residual = 7.241065e-09, No Iterations 2
DICPCG:  Solving for p, Initial residual = 0.00090745577, Final residual = 3.824015e-07, No Iterations 26
time step continuity errors : sum local = 1.3368923e-10, global = 2.0971477e-20, cumulative = 9.0345209e-19
ExecutionTime = 0.28 s  ClockTime = 0 s

Time = 1.4

Courant Number mean: 0.034179084 max: 0.16250176
smoothSolver:  Solving for Ux, Initial residual = 0.0010618902, Final residual = 5.4755903e-09, No Iterations 2
smoothSolver:  Solving for Uy, Initial residual = 0.0013588929, Final residual = 7.1715164e-09, No Iterations 2
DICPCG:  Solving for p, Initial residual = 0.00089576553, Final residual = 3.676305e-07, No Iterations 26
time step continuity errors : sum local = 1.2855065e-10, global = -1.7243129e-19, cumulative = 7.310208e-19
ExecutionTime = 0.28 s  ClockTime = 0 s

Time = 1.41

Courant Number mean: 0.034242497 max: 0.16256581
smoothSolver:  Solving for Ux, Initial residual = 0.0010520873, Final residual = 5.4299444e-09, No Iterations 2
smoothSolver:  Solving for Uy, Initial residual = 0.0013460315, Final residual = 7.102845e-09, No Iterations 2
DICPCG:  Solving for p, Initial residual = 0.00088686877, Final residual = 9.9749282e-07, No Iterations 25
time step continuity errors : sum local = 3.4873249e-10, global = 4.7910301e-20, cumulative = 7.789311e-19
ExecutionTime = 0.28 s  ClockTime = 0 s

Time = 1.42

Courant Number mean: 0.0343053 max: 0.16262884
smoothSolver:  Solving for Ux, Initial residual = 0.0010425344, Final residual = 5.3849359e-09, No Iterations 2
smoothSolver:  Solving for Uy, Initial residual = 0.0013333377, Final residual = 7.0350122e-09, No Iterations 2
DICPCG:  Solving for p, Initial residual = 0.00087818843, Final residual = 9.7907813e-07, No Iterations 25
time step continuity errors : sum local = 3.4257666e-10, global = 2.111047e-19, cumulative = 9.900358e-19
ExecutionTime = 0.29 s  ClockTime = 0 s

Time = 1.43

Courant Number mean: 0.034367502 max: 0.16269086
smoothSolver:  Solving for Ux, Initial residual = 0.001033079, Final residual = 5.3402895e-09, No Iterations 2
smoothSolver:  Solving for Uy, Initial residual = 0.0013208128, Final residual = 6.9680633e-09, No Iterations 2
DICPCG:  Solving for p, Initial residual = 0.00086946666, Final residual = 9.6215755e-07, No Iterations 25
time step continuity errors : sum local = 3.3691235e-10, global = -1.7945187e-19, cumulative = 8.1058393e-19
ExecutionTime = 0.29 s  ClockTime = 0 s

Time = 1.44

Courant Number mean: 0.034429113 max: 0.1627519
smoothSolver:  Solving for Ux, Initial residual = 0.0010237425, Final residual = 5.2963305e-09, No Iterations 2
smoothSolver:  Solving for Uy, Initial residual = 0.0013084562, Final residual = 6.9020342e-09, No Iterations 2
DICPCG:  Solving for p, Initial residual = 0.00086089675, Final residual = 9.472988e-07, No Iterations 25
[...]
smoothSolver:  Solving for Uy, Initial residual = 4.2244259e-09, Final residual = 4.2244259e-09, No Iterations 0
DICPCG:  Solving for p, Initial residual = 1.9660038e-06, Final residual = 1.644421e-07, No Iterations 1
time step continuity errors : sum local = 6.1361121e-11, global = 1.3484765e-20, cumulative = 1.0232093e-18
ExecutionTime = 5.03 s  ClockTime = 5 s

Time = 49.65

Courant Number mean: 0.044365026 max: 0.16800273
smoothSolver:  Solving for Ux, Initial residual = 3.9188317e-09, Final residual = 3.9188317e-09, No Iterations 0
smoothSolver:  Solving for Uy, Initial residual = 4.7872007e-09, Final residual = 4.7872007e-09, No Iterations 0
DICPCG:  Solving for p, Initial residual = 1.3824106e-06, Final residual = 3.4634878e-08, No Iterations 1
time step continuity errors : sum local = 1.2943269e-11, global = 5.4599744e-20, cumulative = 1.077809e-18
ExecutionTime = 5.03 s  ClockTime = 5 s

Time = 49.66

Courant Number mean: 0.044365026 max: 0.16800273
smoothSolver:  Solving for Ux, Initial residual = 1.3540373e-09, Final residual = 1.3540373e-09, No Iterations 0
smoothSolver:  Solving for Uy, Initial residual = 1.686537e-09, Final residual = 1.686537e-09, No Iterations 0
DICPCG:  Solving for p, Initial residual = 3.8914092e-07, Final residual = 3.8914092e-07, No Iterations 0
time step continuity errors : sum local = 1.4513031e-10, global = 3.0374604e-20, cumulative = 1.1081836e-18
ExecutionTime = 5.03 s  ClockTime = 5 s

Time = 49.67

Courant Number mean: 0.044365026 max: 0.16800273
smoothSolver:  Solving for Ux, Initial residual = 1.4820935e-09, Final residual = 1.4820935e-09, No Iterations 0
smoothSolver:  Solving for Uy, Initial residual = 1.8523433e-09, Final residual = 1.8523433e-09, No Iterations 0
DICPCG:  Solving for p, Initial residual = 8.0382765e-07, Final residual = 8.0382765e-07, No Iterations 0
time step continuity errors : sum local = 2.9976422e-10, global = -1.570399e-20, cumulative = 1.0924796e-18
ExecutionTime = 5.03 s  ClockTime = 5 s

Time = 49.68

Courant Number mean: 0.044365026 max: 0.16800273
smoothSolver:  Solving for Ux, Initial residual = 1.4427431e-09, Final residual = 1.4427431e-09, No Iterations 0
smoothSolver:  Solving for Uy, Initial residual = 1.8172229e-09, Final residual = 1.8172229e-09, No Iterations 0
DICPCG:  Solving for p, Initial residual = 1.1931105e-06, Final residual = 1.4538486e-07, No Iterations 1
time step continuity errors : sum local = 5.4232655e-11, global = 9.8306644e-20, cumulative = 1.1907863e-18
ExecutionTime = 5.03 s  ClockTime = 5 s

Time = 49.69

Courant Number mean: 0.044365026 max: 0.16800273
smoothSolver:  Solving for Ux, Initial residual = 3.2996467e-09, Final residual = 3.2996467e-09, No Iterations 0
smoothSolver:  Solving for Uy, Initial residual = 4.1092922e-09, Final residual = 4.1092922e-09, No Iterations 0
DICPCG:  Solving for p, Initial residual = 9.8683844e-07, Final residual = 9.8683844e-07, No Iterations 0
time step continuity errors : sum local = 3.6803373e-10, global = -1.9212401e-19, cumulative = 9.9866225e-19
ExecutionTime = 5.04 s  ClockTime = 5 s

Time = 49.7

Courant Number mean: 0.044365026 max: 0.16800273
smoothSolver:  Solving for Ux, Initial residual = 3.4028653e-09, Final residual = 3.4028653e-09, No Iterations 0
smoothSolver:  Solving for Uy, Initial residual = 4.2640054e-09, Final residual = 4.2640054e-09, No Iterations 0
DICPCG:  Solving for p, Initial residual = 1.9735976e-06, Final residual = 1.6320257e-07, No Iterations 1
time step continuity errors : sum local = 6.0889226e-11, global = -8.6465123e-20, cumulative = 9.1219713e-19
ExecutionTime = 5.04 s  ClockTime = 5 s

Time = 49.71

Courant Number mean: 0.044365026 max: 0.16800273
smoothSolver:  Solving for Ux, Initial residual = 4.0088985e-09, Final residual = 4.0088985e-09, No Iterations 0
smoothSolver:  Solving for Uy, Initial residual = 4.8819911e-09, Final residual = 4.8819911e-09, No Iterations 0
DICPCG:  Solving for p, Initial residual = 1.4148313e-06, Final residual = 3.1400984e-08, No Iterations 1
time step continuity errors : sum local = 1.17463e-11, global = -1.1150342e-19, cumulative = 8.0069371e-19
ExecutionTime = 5.04 s  ClockTime = 5 s

Time = 49.72

Courant Number mean: 0.044365026 max: 0.16800273
smoothSolver:  Solving for Ux, Initial residual = 1.3012969e-09, Final residual = 1.3012969e-09, No Iterations 0
smoothSolver:  Solving for Uy, Initial residual = 1.6545101e-09, Final residual = 1.6545101e-09, No Iterations 0
DICPCG:  Solving for p, Initial residual = 3.9047524e-07, Final residual = 3.9047524e-07, No Iterations 0
time step continuity errors : sum local = 1.4565247e-10, global = -2.2468396e-19, cumulative = 5.7600975e-19
ExecutionTime = 5.04 s  ClockTime = 5 s

Time = 49.73

Courant Number mean: 0.044365026 max: 0.16800273
smoothSolver:  Solving for Ux, Initial residual = 1.441538e-09, Final residual = 1.441538e-09, No Iterations 0
smoothSolver:  Solving for Uy, Initial residual = 1.8224747e-09, Final residual = 1.8224747e-09, No Iterations 0
DICPCG:  Solving for p, Initial residual = 8.1524181e-07, Final residual = 8.1524181e-07, No Iterations 0
time step continuity errors : sum local = 3.0405666e-10, global = -7.3217527e-20, cumulative = 5.0279223e-19
ExecutionTime = 5.04 s  ClockTime = 5 s

Time = 49.74

Courant Number mean: 0.044365026 max: 0.16800273
smoothSolver:  Solving for Ux, Initial residual = 1.4106697e-09, Final residual = 1.4106697e-09, No Iterations 0
smoothSolver:  Solving for Uy, Initial residual = 1.7889263e-09, Final residual = 1.7889263e-09, No Iterations 0
DICPCG:  Solving for p, Initial residual = 1.2124374e-06, Final residual = 1.3673623e-07, No Iterations 1
time step continuity errors : sum local = 5.1035591e-11, global = -8.0874706e-20, cumulative = 4.2191752e-19
ExecutionTime = 5.04 s  ClockTime = 5 s

Time = 49.75

Courant Number mean: 0.044365026 max: 0.16800273
smoothSolver:  Solving for Ux, Initial residual = 3.2547417e-09, Final residual = 3.2547417e-09, No Iterations 0
smoothSolver:  Solving for Uy, Initial residual = 4.051378e-09, Final residual = 4.051378e-09, No Iterations 0
DICPCG:  Solving for p, Initial residual = 9.9448973e-07, Final residual = 9.9448973e-07, No Iterations 0
time step continuity errors : sum local = 3.7090433e-10, global = -1.9910356e-19, cumulative = 2.2281396e-19
ExecutionTime = 5.04 s  ClockTime = 5 s

Time = 49.76

Courant Number mean: 0.044365026 max: 0.16800273
smoothSolver:  Solving for Ux, Initial residual = 3.3693173e-09, Final residual = 3.3693173e-09, No Iterations 0
smoothSolver:  Solving for Uy, Initial residual = 4.2280013e-09, Final residual = 4.2280013e-09, No Iterations 0
DICPCG:  Solving for p, Initial residual = 2.0026686e-06, Final residual = 1.5965228e-07, No Iterations 1
time step continuity errors : sum local = 5.9571742e-11, global = -5.9038196e-20, cumulative = 1.6377577e-19
ExecutionTime = 5.04 s  ClockTime = 5 s

Time = 49.77

Courant Number mean: 0.044365026 max: 0.16800273
smoothSolver:  Solving for Ux, Initial residual = 3.9818486e-09, Final residual = 3.9818486e-09, No Iterations 0
smoothSolver:  Solving for Uy, Initial residual = 4.8525637e-09, Final residual = 4.8525637e-09, No Iterations 0
DICPCG:  Solving for p, Initial residual = 1.4112597e-06, Final residual = 3.3453328e-08, No Iterations 1
time step continuity errors : sum local = 1.2500686e-11, global = -2.9290399e-20, cumulative = 1.3448537e-19
ExecutionTime = 5.04 s  ClockTime = 5 s

Time = 49.78

Courant Number mean: 0.044365026 max: 0.16800273
smoothSolver:  Solving for Ux, Initial residual = 1.3078015e-09, Final residual = 1.3078015e-09, No Iterations 0
smoothSolver:  Solving for Uy, Initial residual = 1.6311383e-09, Final residual = 1.6311383e-09, No Iterations 0
DICPCG:  Solving for p, Initial residual = 3.8504512e-07, Final residual = 3.8504512e-07, No Iterations 0
time step continuity errors : sum local = 1.4360204e-10, global = 1.5449881e-19, cumulative = 2.8898417e-19
ExecutionTime = 5.04 s  ClockTime = 5 s

Time = 49.79

Courant Number mean: 0.044365026 max: 0.16800273
smoothSolver:  Solving for Ux, Initial residual = 1.4399117e-09, Final residual = 1.4399117e-09, No Iterations 0
smoothSolver:  Solving for Uy, Initial residual = 1.8024702e-09, Final residual = 1.8024702e-09, No Iterations 0
DICPCG:  Solving for p, Initial residual = 7.9757675e-07, Final residual = 7.9757675e-07, No Iterations 0
time step continuity errors : sum local = 2.9743301e-10, global = 2.7799625e-20, cumulative = 3.167838e-19
ExecutionTime = 5.04 s  ClockTime = 5 s

Time = 49.8

Courant Number mean: 0.044365026 max: 0.16800273
smoothSolver:  Solving for Ux, Initial residual = 1.4001229e-09, Final residual = 1.4001229e-09, No Iterations 0
smoothSolver:  Solving for Uy, Initial residual = 1.7709965e-09, Final residual = 1.7709965e-09, No Iterations 0
DICPCG:  Solving for p, Initial residual = 1.1849293e-06, Final residual = 1.368495e-07, No Iterations 1
time step continuity errors : sum local = 5.1047828e-11, global = 1.3315358e-19, cumulative = 4.4993738e-19
ExecutionTime = 5.04 s  ClockTime = 5 s

Time = 49.81

Courant Number mean: 0.044365026 max: 0.16800273
smoothSolver:  Solving for Ux, Initial residual = 3.2257729e-09, Final residual = 3.2257729e-09, No Iterations 0
smoothSolver:  Solving for Uy, Initial residual = 4.022653e-09, Final residual = 4.022653e-09, No Iterations 0
DICPCG:  Solving for p, Initial residual = 9.8188795e-07, Final residual = 9.8188795e-07, No Iterations 0
time step continuity errors : sum local = 3.6618455e-10, global = 2.9900259e-20, cumulative = 4.7983764e-19
ExecutionTime = 5.05 s  ClockTime = 5 s

Time = 49.82

Courant Number mean: 0.044365026 max: 0.16800273
smoothSolver:  Solving for Ux, Initial residual = 3.3232887e-09, Final residual = 3.3232887e-09, No Iterations 0
smoothSolver:  Solving for Uy, Initial residual = 4.1734714e-09, Final residual = 4.1734714e-09, No Iterations 0
DICPCG:  Solving for p, Initial residual = 1.9634973e-06, Final residual = 1.5594404e-07, No Iterations 1
time step continuity errors : sum local = 5.8175505e-11, global = 1.204142e-19, cumulative = 6.0025184e-19
ExecutionTime = 5.05 s  ClockTime = 5 s

Time = 49.83

Courant Number mean: 0.044365026 max: 0.16800273
smoothSolver:  Solving for Ux, Initial residual = 3.9810641e-09, Final residual = 3.9810641e-09, No Iterations 0
smoothSolver:  Solving for Uy, Initial residual = 4.8415202e-09, Final residual = 4.8415202e-09, No Iterations 0
DICPCG:  Solving for p, Initial residual = 1.4068489e-06, Final residual = 3.0425426e-08, No Iterations 1
time step continuity errors : sum local = 1.1371224e-11, global = -1.1501013e-19, cumulative = 4.8524171e-19
ExecutionTime = 5.05 s  ClockTime = 5 s

Time = 49.84

Courant Number mean: 0.044365026 max: 0.16800273
smoothSolver:  Solving for Ux, Initial residual = 1.2467995e-09, Final residual = 1.2467995e-09, No Iterations 0
smoothSolver:  Solving for Uy, Initial residual = 1.5825794e-09, Final residual = 1.5825794e-09, No Iterations 0
DICPCG:  Solving for p, Initial residual = 3.8127299e-07, Final residual = 3.8127299e-07, No Iterations 0
time step continuity errors : sum local = 1.4220949e-10, global = 4.5570373e-20, cumulative = 5.3081208e-19
ExecutionTime = 5.05 s  ClockTime = 5 s

Time = 49.85

Courant Number mean: 0.044365026 max: 0.16800273
smoothSolver:  Solving for Ux, Initial residual = 1.3869846e-09, Final residual = 1.3869846e-09, No Iterations 0
smoothSolver:  Solving for Uy, Initial residual = 1.7493136e-09, Final residual = 1.7493136e-09, No Iterations 0
DICPCG:  Solving for p, Initial residual = 7.9626405e-07, Final residual = 7.9626405e-07, No Iterations 0
time step continuity errors : sum local = 2.9696819e-10, global = 9.2648465e-20, cumulative = 6.2346054e-19
ExecutionTime = 5.05 s  ClockTime = 5 s

Time = 49.86

Courant Number mean: 0.044365026 max: 0.16800273
smoothSolver:  Solving for Ux, Initial residual = 1.3573752e-09, Final residual = 1.3573752e-09, No Iterations 0
smoothSolver:  Solving for Uy, Initial residual = 1.7183961e-09, Final residual = 1.7183961e-09, No Iterations 0
DICPCG:  Solving for p, Initial residual = 1.1840992e-06, Final residual = 1.2843542e-07, No Iterations 1
time step continuity errors : sum local = 4.7926512e-11, global = 1.1041922e-19, cumulative = 7.3387976e-19
ExecutionTime = 5.05 s  ClockTime = 5 s

Time = 49.87

Courant Number mean: 0.044365026 max: 0.16800273
smoothSolver:  Solving for Ux, Initial residual = 3.1484318e-09, Final residual = 3.1484318e-09, No Iterations 0
smoothSolver:  Solving for Uy, Initial residual = 3.9160069e-09, Final residual = 3.9160069e-09, No Iterations 0
DICPCG:  Solving for p, Initial residual = 9.699983e-07, Final residual = 9.699983e-07, No Iterations 0
time step continuity errors : sum local = 3.6176261e-10, global = 2.756584e-19, cumulative = 1.0095382e-18
ExecutionTime = 5.05 s  ClockTime = 5 s

Time = 49.88

Courant Number mean: 0.044365026 max: 0.16800273
smoothSolver:  Solving for Ux, Initial residual = 3.256938e-09, Final residual = 3.256938e-09, No Iterations 0
smoothSolver:  Solving for Uy, Initial residual = 4.0880962e-09, Final residual = 4.0880962e-09, No Iterations 0
DICPCG:  Solving for p, Initial residual = 1.9562704e-06, Final residual = 1.5208113e-07, No Iterations 1
time step continuity errors : sum local = 5.6745405e-11, global = 2.2453149e-19, cumulative = 1.2340697e-18
ExecutionTime = 5.05 s  ClockTime = 5 s

Time = 49.89

Courant Number mean: 0.044365026 max: 0.16800273
smoothSolver:  Solving for Ux, Initial residual = 3.8927872e-09, Final residual = 3.8927872e-09, No Iterations 0
smoothSolver:  Solving for Uy, Initial residual = 4.7354757e-09, Final residual = 4.7354757e-09, No Iterations 0
DICPCG:  Solving for p, Initial residual = 1.3781765e-06, Final residual = 3.1973593e-08, No Iterations 1
time step continuity errors : sum local = 1.1952206e-11, global = 3.4406478e-20, cumulative = 1.2684761e-18
ExecutionTime = 5.05 s  ClockTime = 5 s

Time = 49.9

Courant Number mean: 0.044365026 max: 0.16800273
smoothSolver:  Solving for Ux, Initial residual = 1.2373369e-09, Final residual = 1.2373369e-09, No Iterations 0
smoothSolver:  Solving for Uy, Initial residual = 1.5540014e-09, Final residual = 1.5540014e-09, No Iterations 0
DICPCG:  Solving for p, Initial residual = 3.7249179e-07, Final residual = 3.7249179e-07, No Iterations 0
time step continuity errors : sum local = 1.3893322e-10, global = -1.9112451e-19, cumulative = 1.0773516e-18
ExecutionTime = 5.05 s  ClockTime = 5 s

Time = 49.91

Courant Number mean: 0.044365026 max: 0.16800273
smoothSolver:  Solving for Ux, Initial residual = 1.3666666e-09, Final residual = 1.3666666e-09, No Iterations 0
smoothSolver:  Solving for Uy, Initial residual = 1.7203372e-09, Final residual = 1.7203372e-09, No Iterations 0
DICPCG:  Solving for p, Initial residual = 7.71187e-07, Final residual = 7.71187e-07, No Iterations 0
time step continuity errors : sum local = 2.8761148e-10, global = -1.4763785e-19, cumulative = 9.2971377e-19
ExecutionTime = 5.05 s  ClockTime = 5 s

Time = 49.92

Courant Number mean: 0.044365026 max: 0.16800273
smoothSolver:  Solving for Ux, Initial residual = 1.328893e-09, Final residual = 1.328893e-09, No Iterations 0
smoothSolver:  Solving for Uy, Initial residual = 1.6933549e-09, Final residual = 1.6933549e-09, No Iterations 0
DICPCG:  Solving for p, Initial residual = 1.1459619e-06, Final residual = 1.2821681e-07, No Iterations 1
time step continuity errors : sum local = 4.7837046e-11, global = 8.3161695e-20, cumulative = 1.0128755e-18
ExecutionTime = 5.05 s  ClockTime = 5 s

Time = 49.93

Courant Number mean: 0.044365026 max: 0.16800273
smoothSolver:  Solving for Ux, Initial residual = 3.0932111e-09, Final residual = 3.0932111e-09, No Iterations 0
smoothSolver:  Solving for Uy, Initial residual = 3.8518107e-09, Final residual = 3.8518107e-09, No Iterations 0
DICPCG:  Solving for p, Initial residual = 9.4807072e-07, Final residual = 9.4807072e-07, No Iterations 0
time step continuity errors : sum local = 3.5357268e-10, global = 2.1768747e-20, cumulative = 1.0346442e-18
ExecutionTime = 5.06 s  ClockTime = 5 s

Time = 49.94

Courant Number mean: 0.044365026 max: 0.16800273
smoothSolver:  Solving for Ux, Initial residual = 3.1823265e-09, Final residual = 3.1823265e-09, No Iterations 0
smoothSolver:  Solving for Uy, Initial residual = 4.0030153e-09, Final residual = 4.0030153e-09, No Iterations 0
DICPCG:  Solving for p, Initial residual = 1.8955907e-06, Final residual = 1.470253e-07, No Iterations 1
time step continuity errors : sum local = 5.4845166e-11, global = -6.9964921e-21, cumulative = 1.0276477e-18
ExecutionTime = 5.06 s  ClockTime = 5 s

Time = 49.95

Courant Number mean: 0.044365026 max: 0.16800273
smoothSolver:  Solving for Ux, Initial residual = 3.8449399e-09, Final residual = 3.8449399e-09, No Iterations 0
smoothSolver:  Solving for Uy, Initial residual = 4.6720275e-09, Final residual = 4.6720275e-09, No Iterations 0
DICPCG:  Solving for p, Initial residual = 1.3569918e-06, Final residual = 2.9238773e-08, No Iterations 1
time step continuity errors : sum local = 1.0921548e-11, global = 1.6562882e-19, cumulative = 1.1932765e-18
ExecutionTime = 5.06 s  ClockTime = 5 s

Time = 49.96

Courant Number mean: 0.044365026 max: 0.16800273
smoothSolver:  Solving for Ux, Initial residual = 1.1772066e-09, Final residual = 1.1772066e-09, No Iterations 0
smoothSolver:  Solving for Uy, Initial residual = 1.4944953e-09, Final residual = 1.4944953e-09, No Iterations 0
DICPCG:  Solving for p, Initial residual = 3.6560419e-07, Final residual = 3.6560419e-07, No Iterations 0
time step continuity errors : sum local = 1.3635979e-10, global = 4.907709e-20, cumulative = 1.2423536e-18
ExecutionTime = 5.06 s  ClockTime = 5 s

Time = 49.97

Courant Number mean: 0.044365026 max: 0.16800273
smoothSolver:  Solving for Ux, Initial residual = 1.3117784e-09, Final residual = 1.3117784e-09, No Iterations 0
smoothSolver:  Solving for Uy, Initial residual = 1.6554631e-09, Final residual = 1.6554631e-09, No Iterations 0
DICPCG:  Solving for p, Initial residual = 7.6273143e-07, Final residual = 7.6273143e-07, No Iterations 0
time step continuity errors : sum local = 2.844567e-10, global = 1.6195268e-20, cumulative = 1.2585489e-18
ExecutionTime = 5.06 s  ClockTime = 5 s

Time = 49.98

Courant Number mean: 0.044365026 max: 0.16800273
smoothSolver:  Solving for Ux, Initial residual = 1.2838503e-09, Final residual = 1.2838503e-09, No Iterations 0
smoothSolver:  Solving for Uy, Initial residual = 1.6307223e-09, Final residual = 1.6307223e-09, No Iterations 0
DICPCG:  Solving for p, Initial residual = 1.1343759e-06, Final residual = 1.2074782e-07, No Iterations 1
time step continuity errors : sum local = 4.5052172e-11, global = -1.5676886e-19, cumulative = 1.10178e-18
ExecutionTime = 5.06 s  ClockTime = 5 s

Time = 49.99

Courant Number mean: 0.044365026 max: 0.16800273
smoothSolver:  Solving for Ux, Initial residual = 2.9975944e-09, Final residual = 2.9975944e-09, No Iterations 0
smoothSolver:  Solving for Uy, Initial residual = 3.7308231e-09, Final residual = 3.7308231e-09, No Iterations 0
DICPCG:  Solving for p, Initial residual = 9.2752715e-07, Final residual = 9.2752715e-07, No Iterations 0
time step continuity errors : sum local = 3.4591677e-10, global = -8.9514442e-20, cumulative = 1.0122656e-18
ExecutionTime = 5.06 s  ClockTime = 5 s

Time = 50

Courant Number mean: 0.044365026 max: 0.16800273
smoothSolver:  Solving for Ux, Initial residual = 3.0967936e-09, Final residual = 3.0967936e-09, No Iterations 0
smoothSolver:  Solving for Uy, Initial residual = 3.8921376e-09, Final residual = 3.8921376e-09, No Iterations 0
DICPCG:  Solving for p, Initial residual = 1.8722898e-06, Final residual = 1.4364668e-07, No Iterations 1
time step continuity errors : sum local = 5.3601377e-11, global = 1.3215408e-19, cumulative = 1.1444197e-18
ExecutionTime = 5.07 s  ClockTime = 5 s

End

