/*---------------------------------------------------------------------------*\
| =========                 |                                                 |
| \\      /  F ield         | OpenFOAM: The Open Source CFD Toolbox           |
|  \\    /   O peration     | Version:  4.x                                   |
|   \\  /    A nd           | Web:      www.OpenFOAM.org                      |
|    \\/     M anipulation  |                                                 |
\*---------------------------------------------------------------------------*/
Build  : 4.x-bf3559e6be92
Exec   : interFoam -parallel
Date   : Jun 15 2017
Time   : 16:37:58
Host   : "dagobah"
PID    : 13901
Case   : /home/joegi/OpenFOAM/of_courses/introductory/NEXT_COURSE/40x/101programming/codeStream_INIT/fillBox
nProcs : 4
Slaves : 
3
(
"dagobah.13902"
"dagobah.13903"
"dagobah.13904"
)

Pstream initialized with:
    floatTransfer      : 0
    nProcsSimpleSum    : 0
    commsType          : nonBlocking
    polling iterations : 0
sigFpe : Enabling floating point exception trapping (FOAM_SIGFPE).
fileModificationChecking : Monitoring run-time modified files using timeStampMaster
allowSystemOperations : Allowing user-supplied system call operations

// * * * * * * * * * * * * * * * * * * * * * * * * * * * * * * * * * * * * * //
Create time

Create mesh for time = 0


PIMPLE: Operating solver in PISO mode

Reading field p_rgh

Reading field U

Using dynamicCode for patch leftWall on field U at line 26 in "/home/joegi/OpenFOAM/of_courses/introductory/NEXT_COURSE/40x/101programming/codeStream_INIT/fillBox/processor0/0/U.boundaryField.leftWall"
Reading/calculating face flux field phi

Reading transportProperties

Using dynamicCode for patch leftWall on field alpha.water at line 30974 in "/home/joegi/OpenFOAM/of_courses/introductory/NEXT_COURSE/40x/101programming/codeStream_INIT/fillBox/processor0/0/alpha.water.boundaryField.leftWall"
Selecting incompressible transport model Newtonian
Selecting incompressible transport model Newtonian
Selecting turbulence model type laminar

Reading g

Reading hRef
Calculating field g.h

No MRF models present

No finite volume options present

DICPCG:  Solving for pcorr, Initial residual = 0, Final residual = 0, No Iterations 0
time step continuity errors : sum local = 0, global = 0, cumulative = 0
Courant Number mean: 0 max: 0

Starting time loop

volRegion water_in_domain:all():
    total cells  = 125000
    total volume = 1



Courant Number mean: 0 max: 0
Interface Courant Number mean: 0 max: 0
deltaT = 0.0011904762
Time = 0.00119048

PIMPLE: iteration 1
smoothSolver:  Solving for alpha.water, Initial residual = 0, Final residual = 0, No Iterations 0
Phase-1 volume fraction = 0.2  Min(alpha.water) = 0  Max(alpha.water) = 1
MULES: Correcting alpha.water
MULES: Correcting alpha.water
Phase-1 volume fraction = 0.2  Min(alpha.water) = 0  Max(alpha.water) = 1
DICPCG:  Solving for p_rgh, Initial residual = 1, Final residual = 0.0039449336, No Iterations 1
time step continuity errors : sum local = 0.00054770545, global = -4.7619047e-05, cumulative = -4.7619047e-05
DICPCG:  Solving for p_rgh, Initial residual = 0.001864598, Final residual = 8.1183004e-05, No Iterations 48
time step continuity errors : sum local = 2.3848325e-05, global = -1.338851e-07, cumulative = -4.7752933e-05
DICPCG:  Solving for p_rgh, Initial residual = 6.076219e-05, Final residual = 9.8676588e-08, No Iterations 71
time step continuity errors : sum local = 3.8655425e-08, global = -3.876164e-09, cumulative = -4.7756809e-05
ExecutionTime = 0.61 s  ClockTime = 0 s

fieldMinMax minmaxdomain write:
    min(p) = -9.81 at location (0.53 1 0.07) on processor 2
    max(p) = 1980.9195 at location (0.01 0 0.71) on processor 0
    min(p_rgh) = 0 at location (0.53 1 0.01) on processor 2
    max(p_rgh) = 6827.4175 at location (0 0.69 0.61) on processor 3
    min(U) = (4.9047783e-07 1.5357053e-07 -1.9731495e-06) at location (0.01 0.01 0.03) on processor 0
    max(U) = (0.71709635 0.15162906 0.11451714) at location (0.03 0.63 0.63) on processor 3
    min(alpha.water) = 0 at location (0.01 0.21 0.01) on processor 0
    max(alpha.water) = 1 at location (0.01 0.01 0.01) on processor 0

volRegion water_in_domain write:
    volIntegrate() of alpha.water = 0.2

Courant Number mean: 0.0025055596 max: 0.10387057
Interface Courant Number mean: 0 max: 0
deltaT = 0.0013945578
Time = 0.00258503

PIMPLE: iteration 1
smoothSolver:  Solving for alpha.water, Initial residual = 8.7185632e-05, Final residual = 1.541879e-09, No Iterations 2
Phase-1 volume fraction = 0.20005578  Min(alpha.water) = 0  Max(alpha.water) = 1.0000002
MULES: Correcting alpha.water
MULES: Correcting alpha.water
Phase-1 volume fraction = 0.20005578  Min(alpha.water) = -2.8710714e-09  Max(alpha.water) = 1.0000002
DICPCG:  Solving for p_rgh, Initial residual = 0.0027297628, Final residual = 0.00013495804, No Iterations 2
time step continuity errors : sum local = 7.2585087e-05, global = 6.5069666e-05, cumulative = 1.7312857e-05
DICPCG:  Solving for p_rgh, Initial residual = 0.00015806928, Final residual = 7.1677494e-06, No Iterations 66
time step continuity errors : sum local = 3.8659991e-06, global = -1.7309071e-07, cumulative = 1.7139766e-05
DICPCG:  Solving for p_rgh, Initial residual = 1.3508539e-05, Final residual = 9.2526592e-08, No Iterations 64
time step continuity errors : sum local = 4.9521227e-08, global = -1.720914e-09, cumulative = 1.7138046e-05
ExecutionTime = 1.03 s  ClockTime = 1 s

fieldMinMax minmaxdomain write:
    min(p) = -18.143453 at location (0.01 0.71 0.59) on processor 3
    max(p) = 1960.1243 at location (0.95 0 0.83) on processor 1
    min(p_rgh) = -6.166103 at location (0 0.73 0.59) on processor 3
    max(p_rgh) = 6761.8648 at location (0 0.69 0.67) on processor 3
    min(U) = (-0.074106852 -0.2447562 -0.42693623) at location (0.03 0.51 0.49) on processor 0
    max(U) = (0.79119845 0.16614161 0.037119297) at location (0.03 0.63 0.61) on processor 3
    min(alpha.water) = -2.8710714e-09 at location (0 0.75 0.65) on processor 3
    max(alpha.water) = 1.0000002 at location (0.55 0.11 0.17) on processor 0

volRegion water_in_domain write:
    volIntegrate() of alpha.water = 0.20005578

Courant Number mean: 0.0029500184 max: 0.11039104
Interface Courant Number mean: 5.6797664e-05 max: 0.072846259
deltaT = 0.0016349988
Time = 0.00422003

PIMPLE: iteration 1
smoothSolver:  Solving for alpha.water, Initial residual = 0.00010222343, Final residual = 3.4363289e-10, No Iterations 2
Phase-1 volume fraction = 0.20012118  Min(alpha.water) = -2.8710714e-09  Max(alpha.water) = 1.0000002
MULES: Correcting alpha.water
MULES: Correcting alpha.water
Phase-1 volume fraction = 0.20012118  Min(alpha.water) = -2.4492349e-12  Max(alpha.water) = 1.0000002
DICPCG:  Solving for p_rgh, Initial residual = 0.0021849153, Final residual = 0.00010498613, No Iterations 1
time step continuity errors : sum local = 7.7210324e-05, global = 3.3703021e-09, cumulative = 1.7141416e-05
DICPCG:  Solving for p_rgh, Initial residual = 0.00010721024, Final residual = 4.6995916e-06, No Iterations 11
time step continuity errors : sum local = 3.4649388e-06, global = 2.0133878e-07, cumulative = 1.7342755e-05
DICPCG:  Solving for p_rgh, Initial residual = 9.7918826e-06, Final residual = 8.7710675e-08, No Iterations 59
time step continuity errors : sum local = 6.4663659e-08, global = 3.247084e-09, cumulative = 1.7346002e-05
ExecutionTime = 1.37 s  ClockTime = 1 s

fieldMinMax minmaxdomain write:
    min(p) = -14.20798 at location (0.01 0.71 0.61) on processor 3
    max(p) = 1960.0795 at location (0.33 0 0.69) on processor 0
    min(p_rgh) = -2.440164 at location (0 0.73 0.61) on processor 3
    max(p_rgh) = 6768.5061 at location (0 0.69 0.51) on processor 3
    min(U) = (-0.094590793 -0.26595223 -0.30797145) at location (0.03 0.49 0.49) on processor 0
    max(U) = (0.84593011 0.1078593 0.096530332) at location (0.03 0.63 0.63) on processor 3
    min(alpha.water) = -2.4492349e-12 at location (0 0.47 0.61) on processor 0
    max(alpha.water) = 1.0000002 at location (0.55 0.11 0.17) on processor 0

volRegion water_in_domain write:
    volIntegrate() of alpha.water = 0.20012118

Courant Number mean: 0.0034701839 max: 0.12011836
Interface Courant Number mean: 6.682805e-05 max: 0.08407309
deltaT = 0.0019074986
Time = 0.00612753

PIMPLE: iteration 1
smoothSolver:  Solving for alpha.water, Initial residual = 0.00011926442, Final residual = 7.2990062e-10, No Iterations 2
Phase-1 volume fraction = 0.20019748  Min(alpha.water) = -2.4492349e-12  Max(alpha.water) = 1.0000002
MULES: Correcting alpha.water
MULES: Correcting alpha.water
Phase-1 volume fraction = 0.20019748  Min(alpha.water) = 1.2973672e-123  Max(alpha.water) = 1.0000002
DICPCG:  Solving for p_rgh, Initial residual = 0.0018274405, Final residual = 8.1276346e-05, No Iterations 1
time step continuity errors : sum local = 8.1444935e-05, global = 1.0685037e-08, cumulative = 1.7356687e-05
DICPCG:  Solving for p_rgh, Initial residual = 8.4471004e-05, Final residual = 4.0087031e-06, No Iterations 10
time step continuity errors : sum local = 4.0257257e-06, global = -1.7023568e-07, cumulative = 1.7186451e-05
DICPCG:  Solving for p_rgh, Initial residual = 9.2928044e-06, Final residual = 9.4950781e-08, No Iterations 59
time step continuity errors : sum local = 9.5351065e-08, global = -4.1039721e-09, cumulative = 1.7182347e-05
ExecutionTime = 1.72 s  ClockTime = 1 s

fieldMinMax minmaxdomain write:
    min(p) = -13.921417 at location (0.01 0.71 0.61) on processor 3
    max(p) = 1960.0944 at location (0.31 0 0.67) on processor 0
    min(p_rgh) = -2.2944261 at location (0 0.73 0.59) on processor 3
    max(p_rgh) = 6767.3167 at location (0 0.69 0.51) on processor 3
    min(U) = (-0.128539 -0.28328775 -0.32680317) at location (0.03 0.49 0.49) on processor 0
    max(U) = (0.89350064 0.1144605 0.060512821) at location (0.03 0.65 0.63) on processor 3
    min(alpha.water) = 1.2973672e-123 at location (0.99 0.99 0.01) on processor 2
    max(alpha.water) = 1.0000002 at location (0.55 0.11 0.17) on processor 0

volRegion water_in_domain write:
    volIntegrate() of alpha.water = 0.20019748

Courant Number mean: 0.0040779964 max: 0.13994633
Interface Courant Number mean: 8.3428303e-05 max: 0.106137
deltaT = 0.0021936234
Time = 0.00832115

PIMPLE: iteration 1
smoothSolver:  Solving for alpha.water, Initial residual = 0.00013717543, Final residual = 1.4749316e-09, No Iterations 2
Phase-1 volume fraction = 0.20028522  Min(alpha.water) = 1.1624041e-120  Max(alpha.water) = 1.0000002
MULES: Correcting alpha.water
MULES: Correcting alpha.water
Phase-1 volume fraction = 0.20028522  Min(alpha.water) = 1.1624041e-120  Max(alpha.water) = 1.0000002
DICPCG:  Solving for p_rgh, Initial residual = 0.0015600564, Final residual = 7.2519765e-05, No Iterations 1
time step continuity errors : sum local = 9.6113071e-05, global = -1.1559524e-08, cumulative = 1.7170788e-05
DICPCG:  Solving for p_rgh, Initial residual = 7.5896235e-05, Final residual = 3.2094809e-06, No Iterations 11
time step continuity errors : sum local = 4.2618464e-06, global = -3.00113e-07, cumulative = 1.6870675e-05
DICPCG:  Solving for p_rgh, Initial residual = 8.7826409e-06, Final residual = 9.8679919e-08, No Iterations 59
time step continuity errors : sum local = 1.3103408e-07, global = -3.5290194e-09, cumulative = 1.6867146e-05
ExecutionTime = 2.05 s  ClockTime = 2 s

fieldMinMax minmaxdomain write:
    min(p) = -13.569157 at location (0 0.71 0.59) on processor 3
    max(p) = 1960.1114 at location (0.23 0 0.67) on processor 0
    min(p_rgh) = -2.5906057 at location (0 0.73 0.59) on processor 3
    max(p_rgh) = 6770.7255 at location (0 0.69 0.53) on processor 3
    min(U) = (-0.14293818 -0.29628052 -0.33408964) at location (0.03 0.49 0.49) on processor 0
    max(U) = (1.0690243 0.24302196 0.072062023) at location (0.03 0.69 0.65) on processor 3
    min(alpha.water) = 1.1624041e-120 at location (0.99 0.99 0.01) on processor 2
    max(alpha.water) = 1.0000002 at location (0.55 0.11 0.17) on processor 0

volRegion water_in_domain write:
    volIntegrate() of alpha.water = 0.20028522

Courant Number mean: 0.0047471071 max: 0.15834915
Interface Courant Number mean: 0.00010418927 max: 0.14281247
deltaT = 0.0026049278
Time = 0.0109261

PIMPLE: iteration 1
smoothSolver:  Solving for alpha.water, Initial residual = 0.00016286613, Final residual = 3.13987e-09, No Iterations 2
Phase-1 volume fraction = 0.20038942  Min(alpha.water) = 2.1518323e-117  Max(alpha.water) = 1.0000002
MULES: Correcting alpha.water
MULES: Correcting alpha.water
Phase-1 volume fraction = 0.20038942  Min(alpha.water) = 2.1518323e-117  Max(alpha.water) = 1.0000002
DICPCG:  Solving for p_rgh, Initial residual = 0.001357816, Final residual = 3.0897549e-05, No Iterations 2
time step continuity errors : sum local = 5.7685807e-05, global = 4.2128689e-09, cumulative = 1.6871358e-05
DICPCG:  Solving for p_rgh, Initial residual = 3.2607386e-05, Final residual = 1.5389771e-06, No Iterations 16
time step continuity errors : sum local = 2.8784328e-06, global = -3.3361657e-07, cumulative = 1.6537742e-05
DICPCG:  Solving for p_rgh, Initial residual = 3.397691e-06, Final residual = 9.1741159e-08, No Iterations 55
time step continuity errors : sum local = 1.7158522e-07, global = -2.6559478e-09, cumulative = 1.6535086e-05
ExecutionTime = 2.36 s  ClockTime = 2 s

fieldMinMax minmaxdomain write:
    min(p) = -13.972535 at location (0 0.71 0.61) on processor 3
    max(p) = 1960.1248 at location (0.15 0 0.67) on processor 0
    min(p_rgh) = -3.0593897 at location (0 0.73 0.59) on processor 3
    max(p_rgh) = 6782.2374 at location (0 0.69 0.53) on processor 3
    min(U) = (-0.243358 -0.4260312 -0.5302932) at location (0.01 0.71 0.71) on processor 3
    max(U) = (1.3325001 0.085980899 0.16125323) at location (0.03 0.69 0.69) on processor 3
    min(alpha.water) = 2.1518323e-117 at location (0.99 0.99 0.01) on processor 2
    max(alpha.water) = 1.0000002 at location (0.55 0.11 0.17) on processor 0

volRegion water_in_domain write:
    volIntegrate() of alpha.water = 0.20038942

Courant Number mean: 0.0057321438 max: 0.20155231
Interface Courant Number mean: 0.00013212645 max: 0.20155231
deltaT = 0.0030056859
Time = 0.0139318

PIMPLE: iteration 1
smoothSolver:  Solving for alpha.water, Initial residual = 0.00018780188, Final residual = 5.959945e-09, No Iterations 2
Phase-1 volume fraction = 0.20050964  Min(alpha.water) = 1.8659719e-114  Max(alpha.water) = 1.0000002
MULES: Correcting alpha.water
MULES: Correcting alpha.water
Phase-1 volume fraction = 0.20050964  Min(alpha.water) = 1.8659719e-114  Max(alpha.water) = 1.0000002
DICPCG:  Solving for p_rgh, Initial residual = 0.00081655101, Final residual = 2.531112e-05, No Iterations 3
time step continuity errors : sum local = 6.2691419e-05, global = 7.4128682e-09, cumulative = 1.6542499e-05
DICPCG:  Solving for p_rgh, Initial residual = 2.7483218e-05, Final residual = 1.3703774e-06, No Iterations 19
time step continuity errors : sum local = 3.3986437e-06, global = -4.0158207e-07, cumulative = 1.6140917e-05
DICPCG:  Solving for p_rgh, Initial residual = 2.6515026e-06, Final residual = 9.1877666e-08, No Iterations 53
time step continuity errors : sum local = 2.278595e-07, global = -2.9292854e-09, cumulative = 1.6137987e-05
ExecutionTime = 2.68 s  ClockTime = 2 s

fieldMinMax minmaxdomain write:
    min(p) = -15.81591 at location (0.01 0.51 0.55) on processor 0
    max(p) = 1960.1381 at location (0.07 0 0.67) on processor 0
    min(p_rgh) = -5.0499691 at location (0 0.71 0.59) on processor 3
    max(p_rgh) = 6811.5581 at location (0 0.69 0.53) on processor 3
    min(U) = (-0.29850942 -0.55500637 -0.65246542) at location (0.01 0.71 0.71) on processor 3
    max(U) = (1.0702114 0.35077342 0.10870141) at location (0.05 0.69 0.65) on processor 3
    min(alpha.water) = 1.8659719e-114 at location (0.99 0.99 0.01) on processor 2
    max(alpha.water) = 1.0000002 at location (0.55 0.11 0.17) on processor 0

volRegion water_in_domain write:
    volIntegrate() of alpha.water = 0.20050964

Courant Number mean: 0.0067411063 max: 0.26636815
Interface Courant Number mean: 0.00026129114 max: 0.26636815
deltaT = 0.0036068231
Time = 0.0175386

PIMPLE: iteration 1
smoothSolver:  Solving for alpha.water, Initial residual = 0.00022552821, Final residual = 2.0278258e-10, No Iterations 3
Phase-1 volume fraction = 0.20065392  Min(alpha.water) = 4.2876582e-111  Max(alpha.water) = 1.0000002
MULES: Correcting alpha.water
MULES: Correcting alpha.water
Phase-1 volume fraction = 0.20065392  Min(alpha.water) = 4.2876582e-111  Max(alpha.water) = 1.0000002
DICPCG:  Solving for p_rgh, Initial residual = 0.001257535, Final residual = 5.4989088e-05, No Iterations 2
time step continuity errors : sum local = 0.00019629496, global = 1.0975639e-08, cumulative = 1.6148963e-05
DICPCG:  Solving for p_rgh, Initial residual = 5.7992689e-05, Final residual = 2.852926e-06, No Iterations 15
time step continuity errors : sum local = 1.0199429e-05, global = -9.4833777e-07, cumulative = 1.5200625e-05
DICPCG:  Solving for p_rgh, Initial residual = 7.1453991e-06, Final residual = 9.4808888e-08, No Iterations 59
time step continuity errors : sum local = 3.3893939e-07, global = 1.1616111e-09, cumulative = 1.5201787e-05
ExecutionTime = 3.01 s  ClockTime = 3 s

fieldMinMax minmaxdomain write:
    min(p) = -27.982729 at location (0.01 0.51 0.57) on processor 0
    max(p) = 1960.1558 at location (0.01 0 0.65) on processor 0
    min(p_rgh) = -3.0750419 at location (0 0.71 0.61) on processor 3
    max(p_rgh) = 6833.7871 at location (0 0.69 0.67) on processor 3
    min(U) = (-0.32016346 -0.71787183 -0.7182362) at location (0.01 0.71 0.71) on processor 3
    max(U) = (1.0975969 0.13036812 0.20271583) at location (0.05 0.69 0.69) on processor 3
    min(alpha.water) = 4.2876582e-111 at location (0.99 0.99 0.01) on processor 2
    max(alpha.water) = 1.0000002 at location (0.55 0.11 0.17) on processor 0

volRegion water_in_domain write:
    volIntegrate() of alpha.water = 0.20065392

Courant Number mean: 0.008257488 max: 0.31985214
Interface Courant Number mean: 0.00041158591 max: 0.31985214
deltaT = 0.004057676
Time = 0.0215963

PIMPLE: iteration 1
smoothSolver:  Solving for alpha.water, Initial residual = 0.00025897071, Final residual = 3.9783879e-10, No Iterations 3
Phase-1 volume fraction = 0.20081622  Min(alpha.water) = 2.0109121e-108  Max(alpha.water) = 1.0000002
MULES: Correcting alpha.water
MULES: Correcting alpha.water
Phase-1 volume fraction = 0.20081622  Min(alpha.water) = 2.0109121e-108  Max(alpha.water) = 1.0000002
DICPCG:  Solving for p_rgh, Initial residual = 0.0013928481, Final residual = 5.5214376e-05, No Iterations 2
time step continuity errors : sum local = 0.00024951007, global = 3.0033374e-08, cumulative = 1.523182e-05
DICPCG:  Solving for p_rgh, Initial residual = 5.9365125e-05, Final residual = 2.8556033e-06, No Iterations 15
time step continuity errors : sum local = 1.2930619e-05, global = -1.2153643e-06, cumulative = 1.4016456e-05
DICPCG:  Solving for p_rgh, Initial residual = 8.2650154e-06, Final residual = 9.5443778e-08, No Iterations 60
time step continuity errors : sum local = 4.3217284e-07, global = 3.7850569e-09, cumulative = 1.4020241e-05
ExecutionTime = 3.34 s  ClockTime = 3 s

fieldMinMax minmaxdomain write:
    min(p) = -36.791639 at location (0.01 0.51 0.57) on processor 0
    max(p) = 1960.1741 at location (0.01 0 0.65) on processor 0
    min(p_rgh) = -2.4904857 at location (0 0.71 0.61) on processor 3
    max(p_rgh) = 6843.7292 at location (0 0.69 0.53) on processor 3
    min(U) = (-0.30510129 -0.93106661 -0.77040412) at location (0.01 0.71 0.71) on processor 3
    max(U) = (0.89438047 0.11621714 0.093089362) at location (0.07 0.65 0.63) on processor 3
    min(alpha.water) = 2.0109121e-108 at location (0.99 0.99 0.01) on processor 2
    max(alpha.water) = 1.0000002 at location (0.55 0.11 0.17) on processor 0

volRegion water_in_domain write:
    volIntegrate() of alpha.water = 0.20081622

Courant Number mean: 0.0095140938 max: 0.34808158
Interface Courant Number mean: 0.00047454979 max: 0.34808158
deltaT = 0.0047339554
Time = 0.0263302

PIMPLE: iteration 1
smoothSolver:  Solving for alpha.water, Initial residual = 0.00030814705, Final residual = 9.6602513e-10, No Iterations 3
Phase-1 volume fraction = 0.20100558  Min(alpha.water) = 1.9494043e-105  Max(alpha.water) = 1.0000002
MULES: Correcting alpha.water
MULES: Correcting alpha.water
Phase-1 volume fraction = 0.20100558  Min(alpha.water) = -1.5873538e-12  Max(alpha.water) = 1.0000002
DICPCG:  Solving for p_rgh, Initial residual = 0.0013390061, Final residual = 5.8304565e-05, No Iterations 2
time step continuity errors : sum local = 0.00035841726, global = 4.2916283e-08, cumulative = 1.4063157e-05
DICPCG:  Solving for p_rgh, Initial residual = 6.4161013e-05, Final residual = 2.969627e-06, No Iterations 15
time step continuity errors : sum local = 1.8293506e-05, global = -2.0141087e-06, cumulative = 1.2049049e-05
DICPCG:  Solving for p_rgh, Initial residual = 1.0118682e-05, Final residual = 9.8096374e-08, No Iterations 61
time step continuity errors : sum local = 6.0428167e-07, global = 5.7878928e-09, cumulative = 1.2054837e-05
ExecutionTime = 3.67 s  ClockTime = 3 s

fieldMinMax minmaxdomain write:
    min(p) = -45.228012 at location (0.01 0.51 0.59) on processor 0
    max(p) = 1960.1982 at location (0.01 0 0.65) on processor 0
    min(p_rgh) = -2.0478019 at location (0.03 0.73 0.59) on processor 3
    max(p_rgh) = 6850.0245 at location (0 0.69 0.67) on processor 3
    min(U) = (-0.28239992 -1.1820554 -0.80350538) at location (0.01 0.71 0.71) on processor 3
    max(U) = (0.98779955 0.20247644 0.041686984) at location (0.07 0.69 0.63) on processor 3
    min(alpha.water) = -1.5873538e-12 at location (0 0.47 0.69) on processor 0
    max(alpha.water) = 1.0000002 at location (0.55 0.11 0.17) on processor 0

volRegion water_in_domain write:
    volIntegrate() of alpha.water = 0.20100558

Courant Number mean: 0.011448146 max: 0.4082007
Interface Courant Number mean: 0.00057304151 max: 0.4082007
deltaT = 0.0047339554
Time = 0.0310642

PIMPLE: iteration 1
smoothSolver:  Solving for alpha.water, Initial residual = 0.00031162249, Final residual = 1.1960638e-09, No Iterations 3
Phase-1 volume fraction = 0.20119494  Min(alpha.water) = -1.5873538e-12  Max(alpha.water) = 1.0000002
MULES: Correcting alpha.water
MULES: Correcting alpha.water
Phase-1 volume fraction = 0.20119494  Min(alpha.water) = -2.4288891e-11  Max(alpha.water) = 1.0000002
DICPCG:  Solving for p_rgh, Initial residual = 0.001096266, Final residual = 3.2409435e-05, No Iterations 3
time step continuity errors : sum local = 0.00019950332, global = 5.2397703e-08, cumulative = 1.2107234e-05
DICPCG:  Solving for p_rgh, Initial residual = 3.5807572e-05, Final residual = 1.707078e-06, No Iterations 18
time step continuity errors : sum local = 1.05276e-05, global = -1.0597644e-06, cumulative = 1.104747e-05
DICPCG:  Solving for p_rgh, Initial residual = 4.9239784e-06, Final residual = 9.4392139e-08, No Iterations 56
time step continuity errors : sum local = 5.8210437e-07, global = -9.2369006e-09, cumulative = 1.1038233e-05
ExecutionTime = 4.02 s  ClockTime = 4 s

fieldMinMax minmaxdomain write:
    min(p) = -50.442111 at location (0 0.51 0.61) on processor 0
    max(p) = 1960.1931 at location (0.01 0 0.63) on processor 0
    min(p_rgh) = -3.59454 at location (0.03 0.71 0.59) on processor 3
    max(p_rgh) = 6853.7769 at location (0 0.69 0.67) on processor 3
    min(U) = (-0.25331558 -0.083647449 -0.35137712) at location (0.05 0.49 0.47) on processor 0
    max(U) = (0.80936732 0.13658297 0.097925174) at location (0.09 0.65 0.63) on processor 3
    min(alpha.water) = -2.4288891e-11 at location (0 0.47 0.69) on processor 0
    max(alpha.water) = 1.0000002 at location (0.55 0.11 0.17) on processor 0

volRegion water_in_domain write:
    volIntegrate() of alpha.water = 0.20119494

Courant Number mean: 0.011806916 max: 0.47581171
Interface Courant Number mean: 0.00066680827 max: 0.47581171
deltaT = 0.0047339554
Time = 0.0357981

PIMPLE: iteration 1
smoothSolver:  Solving for alpha.water, Initial residual = 0.00031303876, Final residual = 1.5476034e-09, No Iterations 3
Phase-1 volume fraction = 0.2013843  Min(alpha.water) = -2.4288891e-11  Max(alpha.water) = 1.0000005
MULES: Correcting alpha.water
MULES: Correcting alpha.water
Phase-1 volume fraction = 0.2013843  Min(alpha.water) = -1.730477e-10  Max(alpha.water) = 1.0000005
DICPCG:  Solving for p_rgh, Initial residual = 0.0012513838, Final residual = 3.5859388e-05, No Iterations 3
time step continuity errors : sum local = 0.00022148429, global = 7.1436261e-09, cumulative = 1.1045377e-05
DICPCG:  Solving for p_rgh, Initial residual = 3.9219323e-05, Final residual = 1.9263035e-06, No Iterations 18
time step continuity errors : sum local = 1.1918894e-05, global = -1.0864995e-06, cumulative = 9.958877e-06
DICPCG:  Solving for p_rgh, Initial residual = 5.3640405e-06, Final residual = 9.0756674e-08, No Iterations 57
time step continuity errors : sum local = 5.6153758e-07, global = 8.0427793e-10, cumulative = 9.9596813e-06
ExecutionTime = 4.35 s  ClockTime = 4 s

fieldMinMax minmaxdomain write:
    min(p) = -55.5741 at location (0.01 0.51 0.59) on processor 0
    max(p) = 1960.1837 at location (0.01 0 0.65) on processor 0
    min(p_rgh) = -2.1480068 at location (0.03 0.71 0.71) on processor 3
    max(p_rgh) = 6855.315 at location (0 0.69 0.67) on processor 3
    min(U) = (-0.13065527 -0.12387187 -0.40900606) at location (0.07 0.49 0.47) on processor 0
    max(U) = (0.79146801 0.16388506 0.07064597) at location (0.09 0.67 0.63) on processor 3
    min(alpha.water) = -1.730477e-10 at location (0 0.47 0.69) on processor 0
    max(alpha.water) = 1.0000005 at location (0.01 0.51 0.61) on processor 0

volRegion water_in_domain write:
    volIntegrate() of alpha.water = 0.2013843

Courant Number mean: 0.012179164 max: 0.49601178
Interface Courant Number mean: 0.00074624399 max: 0.49601178
deltaT = 0.0047339554
Time = 0.0405321

PIMPLE: iteration 1
smoothSolver:  Solving for alpha.water, Initial residual = 0.00031174314, Final residual = 1.9190982e-09, No Iterations 3
Phase-1 volume fraction = 0.20157365  Min(alpha.water) = -1.730477e-10  Max(alpha.water) = 1.0000013
MULES: Correcting alpha.water
MULES: Correcting alpha.water
Phase-1 volume fraction = 0.20157365  Min(alpha.water) = -7.5318226e-12  Max(alpha.water) = 1.0000013
DICPCG:  Solving for p_rgh, Initial residual = 0.0012367245, Final residual = 6.1281018e-05, No Iterations 2
time step continuity errors : sum local = 0.0003790385, global = 3.7940466e-08, cumulative = 9.9976218e-06
DICPCG:  Solving for p_rgh, Initial residual = 6.6436799e-05, Final residual = 3.3100917e-06, No Iterations 13
time step continuity errors : sum local = 2.051233e-05, global = -1.384995e-06, cumulative = 8.6126268e-06
DICPCG:  Solving for p_rgh, Initial residual = 9.5104308e-06, Final residual = 9.9649884e-08, No Iterations 59
time step continuity errors : sum local = 6.1753922e-07, global = -1.81337e-08, cumulative = 8.5944931e-06
ExecutionTime = 4.67 s  ClockTime = 4 s

fieldMinMax minmaxdomain write:
    min(p) = -60.545872 at location (0 0.51 0.61) on processor 0
    max(p) = 1960.1812 at location (0.01 0 0.65) on processor 0
    min(p_rgh) = -2.3768289 at location (0.03 0.49 0.49) on processor 0
    max(p_rgh) = 6856.4347 at location (0 0.69 0.53) on processor 3
    min(U) = (-0.20481203 -1.7117681 -0.71590197) at location (0.01 0.71 0.71) on processor 3
    max(U) = (0.82951238 0.059737641 0.050824199) at location (0.09 0.67 0.63) on processor 3
    min(alpha.water) = -7.5318226e-12 at location (0 0.47 0.69) on processor 0
    max(alpha.water) = 1.0000013 at location (0.01 0.51 0.61) on processor 0

volRegion water_in_domain write:
    volIntegrate() of alpha.water = 0.20157365

Courant Number mean: 0.012506155 max: 0.49323694
Interface Courant Number mean: 0.00075937379 max: 0.49323694
deltaT = 0.0047339554
Time = 0.045266

PIMPLE: iteration 1
smoothSolver:  Solving for alpha.water, Initial residual = 0.00031010281, Final residual = 2.3176045e-09, No Iterations 3
Phase-1 volume fraction = 0.20176301  Min(alpha.water) = -7.5318226e-12  Max(alpha.water) = 1.0000012
MULES: Correcting alpha.water
MULES: Correcting alpha.water
Phase-1 volume fraction = 0.20176301  Min(alpha.water) = -6.3861919e-10  Max(alpha.water) = 1.0000012
DICPCG:  Solving for p_rgh, Initial residual = 0.001128343, Final residual = 5.3589404e-05, No Iterations 2
time step continuity errors : sum local = 0.00033200098, global = -8.6621909e-09, cumulative = 8.5858309e-06
DICPCG:  Solving for p_rgh, Initial residual = 5.888798e-05, Final residual = 2.9126161e-06, No Iterations 13
time step continuity errors : sum local = 1.80764e-05, global = -1.3159958e-06, cumulative = 7.2698351e-06
DICPCG:  Solving for p_rgh, Initial residual = 9.2017798e-06, Final residual = 9.7552998e-08, No Iterations 60
time step continuity errors : sum local = 6.0547238e-07, global = -1.1249386e-08, cumulative = 7.2585857e-06
ExecutionTime = 4.99 s  ClockTime = 5 s

fieldMinMax minmaxdomain write:
    min(p) = -65.270767 at location (0 0.51 0.61) on processor 0
    max(p) = 1960.1929 at location (0.01 0 0.65) on processor 0
    min(p_rgh) = -2.1023343 at location (0.03 0.49 0.49) on processor 0
    max(p_rgh) = 6857.0597 at location (0 0.69 0.53) on processor 3
    min(U) = (-0.2327758 -1.2947809 -0.55440791) at location (0.03 0.71 0.71) on processor 3
    max(U) = (0.30581146 0.41410298 0.318441) at location (0.11 0.69 0.69) on processor 3
    min(alpha.water) = -6.3861919e-10 at location (0 0.47 0.69) on processor 0
    max(alpha.water) = 1.0000012 at location (0.01 0.51 0.59) on processor 0

volRegion water_in_domain write:
    volIntegrate() of alpha.water = 0.20176301

Courant Number mean: 0.012833188 max: 0.5231803
Interface Courant Number mean: 0.00082266543 max: 0.5231803
deltaT = 0.0047339554
Time = 0.05

PIMPLE: iteration 1
smoothSolver:  Solving for alpha.water, Initial residual = 0.00031229011, Final residual = 2.7342563e-09, No Iterations 3
Phase-1 volume fraction = 0.20195237  Min(alpha.water) = -6.3861919e-10  Max(alpha.water) = 1.0000009
MULES: Correcting alpha.water
MULES: Correcting alpha.water
Phase-1 volume fraction = 0.20195237  Min(alpha.water) = -1.6261476e-09  Max(alpha.water) = 1.0000009
DICPCG:  Solving for p_rgh, Initial residual = 0.00095103832, Final residual = 3.1172921e-05, No Iterations 3
time step continuity errors : sum local = 0.00019339165, global = 2.1745594e-08, cumulative = 7.2803313e-06
DICPCG:  Solving for p_rgh, Initial residual = 3.4428386e-05, Final residual = 1.6820038e-06, No Iterations 16
time step continuity errors : sum local = 1.0451792e-05, global = -1.2388229e-06, cumulative = 6.0415084e-06
DICPCG:  Solving for p_rgh, Initial residual = 4.6395493e-06, Final residual = 9.9264551e-08, No Iterations 57
time step continuity errors : sum local = 6.168216e-07, global = -2.8016941e-09, cumulative = 6.0387067e-06
ExecutionTime = 5.6 s  ClockTime = 5 s

fieldMinMax minmaxdomain write:
    min(p) = -69.229794 at location (0 0.51 0.61) on processor 0
    max(p) = 1960.2044 at location (0.01 0 0.63) on processor 0
    min(p_rgh) = -2.2536797 at location (0.05 0.71 0.61) on processor 3
    max(p_rgh) = 6857.1738 at location (0 0.69 0.53) on processor 3
    min(U) = (-0.26387464 -0.15045261 -0.41668473) at location (0.07 0.49 0.47) on processor 0
    max(U) = (0.56010942 0.26877487 0.17796847) at location (0.13 0.65 0.65) on processor 3
    min(alpha.water) = -1.6261476e-09 at location (0 0.47 0.51) on processor 0
    max(alpha.water) = 1.0000009 at location (0.01 0.51 0.59) on processor 0

volRegion water_in_domain write:
    volIntegrate() of alpha.water = 0.20195237

Courant Number mean: 0.013198171 max: 0.53851811
Interface Courant Number mean: 0.0010459409 max: 0.53851811
deltaT = 0.0055555556
Time = 0.0555556

PIMPLE: iteration 1
smoothSolver:  Solving for alpha.water, Initial residual = 0.00037309942, Final residual = 7.6674139e-09, No Iterations 3
Phase-1 volume fraction = 0.20217458  Min(alpha.water) = -1.6261476e-09  Max(alpha.water) = 1.0000009
MULES: Correcting alpha.water
MULES: Correcting alpha.water
Phase-1 volume fraction = 0.20217458  Min(alpha.water) = -1.7390719e-10  Max(alpha.water) = 1.0000009
DICPCG:  Solving for p_rgh, Initial residual = 0.00092743027, Final residual = 3.6108019e-05, No Iterations 3
time step continuity errors : sum local = 0.00030780976, global = 4.3726493e-08, cumulative = 6.0824332e-06
DICPCG:  Solving for p_rgh, Initial residual = 4.0459754e-05, Final residual = 1.9887709e-06, No Iterations 17
time step continuity errors : sum local = 1.6980439e-05, global = -2.4491887e-06, cumulative = 3.6332445e-06
DICPCG:  Solving for p_rgh, Initial residual = 6.2618888e-06, Final residual = 9.3006198e-08, No Iterations 60
time step continuity errors : sum local = 7.9411573e-07, global = -8.3196672e-09, cumulative = 3.6249248e-06
ExecutionTime = 5.93 s  ClockTime = 6 s

fieldMinMax minmaxdomain write:
    min(p) = -73.118932 at location (0 0.51 0.61) on processor 0
    max(p) = 1960.2399 at location (0.01 0 0.65) on processor 0
    min(p_rgh) = -2.3475568 at location (0.03 0.47 0.61) on processor 0
    max(p_rgh) = 6857.2036 at location (0 0.69 0.53) on processor 3
    min(U) = (-0.13078935 -0.14503393 -0.48692036) at location (0.09 0.49 0.47) on processor 0
    max(U) = (0.61043352 0.2553458 0.17405213) at location (0.13 0.65 0.65) on processor 3
    min(alpha.water) = -1.7390719e-10 at location (0 0.47 0.69) on processor 0
    max(alpha.water) = 1.0000009 at location (0.01 0.53 0.59) on processor 0

volRegion water_in_domain write:
    volIntegrate() of alpha.water = 0.20217458

Courant Number mean: 0.016117149 max: 0.6397515
Interface Courant Number mean: 0.0011259631 max: 0.6397515
deltaT = 0.0063492063
Time = 0.0619048

PIMPLE: iteration 1
smoothSolver:  Solving for alpha.water, Initial residual = 0.00043101661, Final residual = 4.6312286e-10, No Iterations 4
Phase-1 volume fraction = 0.20242855  Min(alpha.water) = -1.7390719e-10  Max(alpha.water) = 1.0000012
MULES: Correcting alpha.water
MULES: Correcting alpha.water
Phase-1 volume fraction = 0.20242855  Min(alpha.water) = -4.0060965e-10  Max(alpha.water) = 1.0000012
DICPCG:  Solving for p_rgh, Initial residual = 0.00094372662, Final residual = 3.471254e-05, No Iterations 3
time step continuity errors : sum local = 0.00038561147, global = 5.1967312e-08, cumulative = 3.6768921e-06
DICPCG:  Solving for p_rgh, Initial residual = 3.9457843e-05, Final residual = 1.9405071e-06, No Iterations 16
time step continuity errors : sum local = 2.159438e-05, global = -1.8520179e-06, cumulative = 1.8248743e-06
DICPCG:  Solving for p_rgh, Initial residual = 6.5719994e-06, Final residual = 9.7906038e-08, No Iterations 59
time step continuity errors : sum local = 1.0895575e-06, global = -1.5654926e-08, cumulative = 1.8092193e-06
ExecutionTime = 6.25 s  ClockTime = 6 s

fieldMinMax minmaxdomain write:
    min(p) = -74.952117 at location (0.01 0.51 0.61) on processor 0
    max(p) = 1960.2434 at location (0.01 0 0.63) on processor 0
    min(p_rgh) = -2.6158279 at location (0 0.47 0.67) on processor 0
    max(p_rgh) = 6857.6503 at location (0 0.69 0.53) on processor 3
    min(U) = (-0.25450124 -1.5061071 -0.55720674) at location (0.03 0.71 0.71) on processor 3
    max(U) = (0.54208072 0.23960328 0.17983178) at location (0.15 0.63 0.65) on processor 3
    min(alpha.water) = -4.0060965e-10 at location (0 0.69 0.73) on processor 3
    max(alpha.water) = 1.0000012 at location (0.01 0.51 0.59) on processor 0

volRegion water_in_domain write:
    volIntegrate() of alpha.water = 0.20242855

Courant Number mean: 0.019200573 max: 0.72997997
Interface Courant Number mean: 0.0013267566 max: 0.72997997
deltaT = 0.0063492063
Time = 0.068254

PIMPLE: iteration 1
smoothSolver:  Solving for alpha.water, Initial residual = 0.00044349908, Final residual = 6.4550547e-10, No Iterations 4
Phase-1 volume fraction = 0.20268252  Min(alpha.water) = -4.0060965e-10  Max(alpha.water) = 1.0000013
MULES: Correcting alpha.water
MULES: Correcting alpha.water
Phase-1 volume fraction = 0.20268252  Min(alpha.water) = -2.5749514e-09  Max(alpha.water) = 1.0000013
DICPCG:  Solving for p_rgh, Initial residual = 0.00087157963, Final residual = 3.1138975e-05, No Iterations 3
time step continuity errors : sum local = 0.00034626688, global = 2.3934377e-08, cumulative = 1.8331537e-06
DICPCG:  Solving for p_rgh, Initial residual = 3.5691732e-05, Final residual = 1.7537401e-06, No Iterations 15
time step continuity errors : sum local = 1.9532927e-05, global = -1.3128834e-06, cumulative = 5.2027033e-07
DICPCG:  Solving for p_rgh, Initial residual = 6.1661493e-06, Final residual = 9.5783178e-08, No Iterations 53
time step continuity errors : sum local = 1.0668714e-06, global = -1.0469662e-07, cumulative = 4.1557372e-07
ExecutionTime = 6.57 s  ClockTime = 6 s

fieldMinMax minmaxdomain write:
    min(p) = -73.330193 at location (0 0.51 0.61) on processor 0
    max(p) = 1960.2309 at location (0.01 0 0.63) on processor 0
    min(p_rgh) = -2.4688551 at location (0 0.47 0.67) on processor 0
    max(p_rgh) = 6858.0111 at location (0 0.69 0.53) on processor 3
    min(U) = (-0.25567951 -1.4877884 -0.54797048) at location (0.03 0.71 0.71) on processor 3
    max(U) = (0.14072339 0.16621048 0.22947178) at location (0.03 0.47 0.49) on processor 0
    min(alpha.water) = -2.5749514e-09 at location (0 0.69 0.77) on processor 3
    max(alpha.water) = 1.0000013 at location (0.03 0.53 0.61) on processor 0

volRegion water_in_domain write:
    volIntegrate() of alpha.water = 0.20268252

Courant Number mean: 0.019909369 max: 0.72691893
Interface Courant Number mean: 0.0017529568 max: 0.72691893
deltaT = 0.0063492063
Time = 0.0746032

PIMPLE: iteration 1
smoothSolver:  Solving for alpha.water, Initial residual = 0.00045821447, Final residual = 8.5439452e-10, No Iterations 4
Phase-1 volume fraction = 0.20293649  Min(alpha.water) = -2.5749514e-09  Max(alpha.water) = 1.0000021
MULES: Correcting alpha.water
MULES: Correcting alpha.water
Phase-1 volume fraction = 0.20293649  Min(alpha.water) = -1.4346321e-10  Max(alpha.water) = 1.0000021
DICPCG:  Solving for p_rgh, Initial residual = 0.00073055797, Final residual = 3.3457211e-05, No Iterations 3
time step continuity errors : sum local = 0.00037227915, global = -1.5189368e-07, cumulative = 2.6368004e-07
DICPCG:  Solving for p_rgh, Initial residual = 3.7981731e-05, Final residual = 1.8052405e-06, No Iterations 15
time step continuity errors : sum local = 2.0113934e-05, global = -2.2388961e-06, cumulative = -1.975216e-06
DICPCG:  Solving for p_rgh, Initial residual = 6.5389125e-06, Final residual = 9.4877849e-08, No Iterations 59
time step continuity errors : sum local = 1.0571776e-06, global = -1.180342e-08, cumulative = -1.9870194e-06
ExecutionTime = 6.89 s  ClockTime = 6 s

fieldMinMax minmaxdomain write:
    min(p) = -71.294892 at location (0.01 0.51 0.59) on processor 0
    max(p) = 1960.2449 at location (0.01 0 0.65) on processor 0
    min(p_rgh) = -2.0836344 at location (0 0.47 0.67) on processor 0
    max(p_rgh) = 6858.204 at location (0 0.69 0.53) on processor 3
    min(U) = (-0.38790475 -1.0415555 -0.47479276) at location (0.05 0.71 0.71) on processor 3
    max(U) = (0.075295754 0.61610176 0.29534323) at location (0.01 0.47 0.53) on processor 0
    min(alpha.water) = -1.4346321e-10 at location (0 0.69 0.73) on processor 3
    max(alpha.water) = 1.0000021 at location (0.01 0.51 0.61) on processor 0

volRegion water_in_domain write:
    volIntegrate() of alpha.water = 0.20293649

Courant Number mean: 0.020678537 max: 0.72604016
Interface Courant Number mean: 0.001648265 max: 0.72604016
deltaT = 0.0063492063
Time = 0.0809524

PIMPLE: iteration 1
smoothSolver:  Solving for alpha.water, Initial residual = 0.00047726626, Final residual = 1.1234917e-09, No Iterations 4
Phase-1 volume fraction = 0.20319045  Min(alpha.water) = -1.4346321e-10  Max(alpha.water) = 1.000001
MULES: Correcting alpha.water
MULES: Correcting alpha.water
Phase-1 volume fraction = 0.20319045  Min(alpha.water) = -9.5750193e-11  Max(alpha.water) = 1.000001
DICPCG:  Solving for p_rgh, Initial residual = 0.00084520271, Final residual = 3.3031538e-05, No Iterations 3
time step continuity errors : sum local = 0.00036783336, global = 1.2253805e-07, cumulative = -1.8644814e-06
DICPCG:  Solving for p_rgh, Initial residual = 3.739765e-05, Final residual = 1.8571514e-06, No Iterations 14
time step continuity errors : sum local = 2.0710421e-05, global = -1.4957324e-06, cumulative = -3.3602138e-06
DICPCG:  Solving for p_rgh, Initial residual = 6.427932e-06, Final residual = 9.919666e-08, No Iterations 54
time step continuity errors : sum local = 1.1062664e-06, global = -7.5572767e-08, cumulative = -3.4357865e-06
ExecutionTime = 7.21 s  ClockTime = 7 s

fieldMinMax minmaxdomain write:
    min(p) = -70.866279 at location (0.01 0.51 0.59) on processor 0
    max(p) = 1960.2377 at location (0.01 0 0.63) on processor 0
    min(p_rgh) = -1.6879561 at location (0 0.47 0.67) on processor 0
    max(p_rgh) = 6858.416 at location (0 0.69 0.67) on processor 3
    min(U) = (-0.39820813 -0.97367878 -0.46395288) at location (0.05 0.71 0.71) on processor 3
    max(U) = (0.10353794 0.56594065 0.28573157) at location (0.01 0.47 0.53) on processor 0
    min(alpha.water) = -9.5750193e-11 at location (0 0.43 0.69) on processor 0
    max(alpha.water) = 1.000001 at location (0.01 0.57 0.57) on processor 3

volRegion water_in_domain write:
    volIntegrate() of alpha.water = 0.20319045

Courant Number mean: 0.021413393 max: 0.72249215
Interface Courant Number mean: 0.001676856 max: 0.72249215
deltaT = 0.0063492063
Time = 0.0873016

PIMPLE: iteration 1
smoothSolver:  Solving for alpha.water, Initial residual = 0.0004931711, Final residual = 1.395562e-09, No Iterations 4
Phase-1 volume fraction = 0.20344442  Min(alpha.water) = -9.5750193e-11  Max(alpha.water) = 1.0000011
MULES: Correcting alpha.water
MULES: Correcting alpha.water
Phase-1 volume fraction = 0.20344442  Min(alpha.water) = -6.0838493e-09  Max(alpha.water) = 1.0000011
DICPCG:  Solving for p_rgh, Initial residual = 0.00080643894, Final residual = 2.9511021e-05, No Iterations 3
time step continuity errors : sum local = 0.00032901204, global = -1.0413869e-07, cumulative = -3.5399252e-06
DICPCG:  Solving for p_rgh, Initial residual = 3.3630547e-05, Final residual = 1.552384e-06, No Iterations 14
time step continuity errors : sum local = 1.7331808e-05, global = -1.4530912e-06, cumulative = -4.9930164e-06
DICPCG:  Solving for p_rgh, Initial residual = 5.8323719e-06, Final residual = 9.7330899e-08, No Iterations 56
time step continuity errors : sum local = 1.0867184e-06, global = -1.0758124e-08, cumulative = -5.0037745e-06
ExecutionTime = 7.54 s  ClockTime = 7 s

fieldMinMax minmaxdomain write:
    min(p) = -71.746547 at location (0.01 0.51 0.61) on processor 0
    max(p) = 1960.2515 at location (0.01 0 0.63) on processor 0
    min(p_rgh) = -2.2379691 at location (0.03 0.47 0.63) on processor 0
    max(p_rgh) = 6858.5737 at location (0 0.69 0.67) on processor 3
    min(U) = (-0.25815354 -1.4157346 -0.519549) at location (0.03 0.71 0.71) on processor 3
    max(U) = (0.067245068 0.49681474 0.30742585) at location (0.01 0.45 0.51) on processor 0
    min(alpha.water) = -6.0838493e-09 at location (0 0.69 0.73) on processor 3
    max(alpha.water) = 1.0000011 at location (0.01 0.51 0.57) on processor 0

volRegion water_in_domain write:
    volIntegrate() of alpha.water = 0.20344442

Courant Number mean: 0.022161473 max: 0.73275909
Interface Courant Number mean: 0.0020703842 max: 0.73275909
deltaT = 0.0063492063
Time = 0.0936508

PIMPLE: iteration 1
smoothSolver:  Solving for alpha.water, Initial residual = 0.00052072627, Final residual = 1.7060206e-09, No Iterations 4
Phase-1 volume fraction = 0.20369839  Min(alpha.water) = -6.0838493e-09  Max(alpha.water) = 1.000001
MULES: Correcting alpha.water
MULES: Correcting alpha.water
Phase-1 volume fraction = 0.20369839  Min(alpha.water) = -1.182996e-08  Max(alpha.water) = 1.000001
DICPCG:  Solving for p_rgh, Initial residual = 0.00066455513, Final residual = 3.2497021e-05, No Iterations 3
time step continuity errors : sum local = 0.00036255138, global = 7.0767963e-08, cumulative = -4.9330065e-06
DICPCG:  Solving for p_rgh, Initial residual = 3.6884248e-05, Final residual = 1.6727106e-06, No Iterations 14
time step continuity errors : sum local = 1.8684616e-05, global = -1.5903662e-06, cumulative = -6.5233727e-06
DICPCG:  Solving for p_rgh, Initial residual = 6.5060739e-06, Final residual = 9.930667e-08, No Iterations 57
time step continuity errors : sum local = 1.1093365e-06, global = 2.46511e-09, cumulative = -6.5209076e-06
ExecutionTime = 7.85 s  ClockTime = 7 s

fieldMinMax minmaxdomain write:
    min(p) = -73.101121 at location (0.01 0.51 0.61) on processor 0
    max(p) = 1960.2674 at location (0.07 0 0.63) on processor 0
    min(p_rgh) = -2.3319154 at location (0.05 0.45 0.59) on processor 0
    max(p_rgh) = 6858.6925 at location (0 0.69 0.67) on processor 3
    min(U) = (-0.27325184 -0.14375335 -0.42997102) at location (0.11 0.45 0.47) on processor 0
    max(U) = (0.072137397 0.46631628 0.33508895) at location (0.01 0.45 0.51) on processor 0
    min(alpha.water) = -1.182996e-08 at location (0 0.69 0.73) on processor 3
    max(alpha.water) = 1.000001 at location (0.01 0.51 0.63) on processor 0

volRegion water_in_domain write:
    volIntegrate() of alpha.water = 0.20369839

Courant Number mean: 0.022990099 max: 0.74204137
Interface Courant Number mean: 0.0021177729 max: 0.74204137
deltaT = 0.0063492063
Time = 0.1

PIMPLE: iteration 1
smoothSolver:  Solving for alpha.water, Initial residual = 0.00053934951, Final residual = 2.1527373e-09, No Iterations 4
Phase-1 volume fraction = 0.20395236  Min(alpha.water) = -1.182996e-08  Max(alpha.water) = 1.0000009
MULES: Correcting alpha.water
MULES: Correcting alpha.water
Phase-1 volume fraction = 0.20395236  Min(alpha.water) = -6.7475542e-09  Max(alpha.water) = 1.0000009
DICPCG:  Solving for p_rgh, Initial residual = 0.00071525636, Final residual = 3.3728734e-05, No Iterations 3
time step continuity errors : sum local = 0.00037649723, global = 4.0771575e-08, cumulative = -6.480136e-06
DICPCG:  Solving for p_rgh, Initial residual = 3.7921048e-05, Final residual = 1.6882992e-06, No Iterations 14
time step continuity errors : sum local = 1.8869551e-05, global = -1.282651e-06, cumulative = -7.762787e-06
DICPCG:  Solving for p_rgh, Initial residual = 6.6057772e-06, Final residual = 9.7258712e-08, No Iterations 55
time step continuity errors : sum local = 1.0870796e-06, global = -2.2530248e-08, cumulative = -7.7853172e-06
ExecutionTime = 8.44 s  ClockTime = 8 s

fieldMinMax minmaxdomain write:
    min(p) = -74.331363 at location (0.01 0.51 0.59) on processor 0
    max(p) = 1960.2677 at location (0.11 0 0.63) on processor 0
    min(p_rgh) = -2.5274709 at location (0.05 0.45 0.59) on processor 0
    max(p_rgh) = 6858.8018 at location (0 0.69 0.67) on processor 3
    min(U) = (-0.40328374 -0.81713035 -0.40638616) at location (0.05 0.71 0.71) on processor 3
    max(U) = (0.067392199 0.43806332 0.35551869) at location (0.01 0.45 0.51) on processor 0
    min(alpha.water) = -6.7475542e-09 at location (0 0.69 0.73) on processor 3
    max(alpha.water) = 1.0000009 at location (0.01 0.51 0.61) on processor 0

volRegion water_in_domain write:
    volIntegrate() of alpha.water = 0.20395236

Courant Number mean: 0.023827741 max: 0.74395166
Interface Courant Number mean: 0.0020661891 max: 0.74395166
deltaT = 0.0071428571
Time = 0.107143

PIMPLE: iteration 1
smoothSolver:  Solving for alpha.water, Initial residual = 0.000635108, Final residual = 5.1781011e-09, No Iterations 4
Phase-1 volume fraction = 0.20423807  Min(alpha.water) = -6.7475542e-09  Max(alpha.water) = 1.000001
MULES: Correcting alpha.water
MULES: Correcting alpha.water
Phase-1 volume fraction = 0.20423807  Min(alpha.water) = -4.0118907e-06  Max(alpha.water) = 1.000001
DICPCG:  Solving for p_rgh, Initial residual = 0.00074575479, Final residual = 3.5355966e-05, No Iterations 3
time step continuity errors : sum local = 0.00049822204, global = -3.0928743e-08, cumulative = -7.816246e-06
DICPCG:  Solving for p_rgh, Initial residual = 4.0590768e-05, Final residual = 1.8617301e-06, No Iterations 14
time step continuity errors : sum local = 2.627206e-05, global = -1.9630208e-06, cumulative = -9.7792668e-06
DICPCG:  Solving for p_rgh, Initial residual = 7.6281144e-06, Final residual = 9.5395786e-08, No Iterations 60
time step continuity errors : sum local = 1.3462704e-06, global = -7.0448431e-09, cumulative = -9.7863116e-06
ExecutionTime = 8.76 s  ClockTime = 8 s

fieldMinMax minmaxdomain write:
    min(p) = -75.416053 at location (0.01 0.51 0.61) on processor 0
    max(p) = 1960.3166 at location (0.11 0 0.63) on processor 0
    min(p_rgh) = -2.4952801 at location (0.05 0.45 0.59) on processor 0
    max(p_rgh) = 6858.7667 at location (0 0.69 0.67) on processor 3
    min(U) = (-0.24139761 -0.27826694 -0.41465837) at location (0.09 0.39 0.49) on processor 0
    max(U) = (0.091440905 1.0237993 0.38660209) at location (0.01 0.45 0.53) on processor 0
    min(alpha.water) = -4.0118907e-06 at location (0 0.47 0.51) on processor 0
    max(alpha.water) = 1.000001 at location (0.05 0.51 0.57) on processor 0

volRegion water_in_domain write:
    volIntegrate() of alpha.water = 0.20423807

Courant Number mean: 0.028013769 max: 0.88064486
Interface Courant Number mean: 0.0029329578 max: 0.88064486
deltaT = 0.0071428571
Time = 0.114286

PIMPLE: iteration 1
smoothSolver:  Solving for alpha.water, Initial residual = 0.00068008992, Final residual = 6.5653912e-09, No Iterations 4
Phase-1 volume fraction = 0.20452378  Min(alpha.water) = -4.0118907e-06  Max(alpha.water) = 1.0000021
MULES: Correcting alpha.water
MULES: Correcting alpha.water
Phase-1 volume fraction = 0.20452378  Min(alpha.water) = -2.5360307e-05  Max(alpha.water) = 1.0000021
DICPCG:  Solving for p_rgh, Initial residual = 0.00066269232, Final residual = 2.1441146e-05, No Iterations 4
time step continuity errors : sum local = 0.00030229142, global = 5.4588993e-08, cumulative = -9.7317226e-06
DICPCG:  Solving for p_rgh, Initial residual = 2.5297239e-05, Final residual = 1.2340708e-06, No Iterations 15
time step continuity errors : sum local = 1.7421351e-05, global = -7.839561e-07, cumulative = -1.0515679e-05
DICPCG:  Solving for p_rgh, Initial residual = 4.682568e-06, Final residual = 9.5256815e-08, No Iterations 56
time step continuity errors : sum local = 1.3447697e-06, global = -7.1364475e-09, cumulative = -1.0522815e-05
ExecutionTime = 9.09 s  ClockTime = 9 s

fieldMinMax minmaxdomain write:
    min(p) = -76.033652 at location (0.01 0.51 0.61) on processor 0
    max(p) = 1960.32 at location (0.15 0 0.61) on processor 0
    min(p_rgh) = -2.3387386 at location (0.07 0.43 0.59) on processor 0
    max(p_rgh) = 6858.7996 at location (0 0.69 0.67) on processor 3
    min(U) = (-0.24913963 -0.17218462 -0.44743359) at location (0.13 0.43 0.47) on processor 0
    max(U) = (0.25352133 0.49596252 0.42539765) at location (0.03 0.45 0.55) on processor 0
    min(alpha.water) = -2.5360307e-05 at location (0.03 0.45 0.69) on processor 0
    max(alpha.water) = 1.0000021 at location (0.03 0.51 0.61) on processor 0

volRegion water_in_domain write:
    volIntegrate() of alpha.water = 0.20452378

Courant Number mean: 0.02922266 max: 0.88497945
Interface Courant Number mean: 0.0030557138 max: 0.88497945
deltaT = 0.0071428571
Time = 0.121429

PIMPLE: iteration 1
smoothSolver:  Solving for alpha.water, Initial residual = 0.00071303373, Final residual = 8.3200034e-09, No Iterations 4
Phase-1 volume fraction = 0.20480949  Min(alpha.water) = -4.6582724e-06  Max(alpha.water) = 1.0000043
MULES: Correcting alpha.water
MULES: Correcting alpha.water
Phase-1 volume fraction = 0.20480949  Min(alpha.water) = -2.7902184e-05  Max(alpha.water) = 1.0000043
DICPCG:  Solving for p_rgh, Initial residual = 0.00071851752, Final residual = 3.3862788e-05, No Iterations 3
time step continuity errors : sum local = 0.00047766731, global = -2.814469e-09, cumulative = -1.052563e-05
DICPCG:  Solving for p_rgh, Initial residual = 3.8642026e-05, Final residual = 1.668712e-06, No Iterations 14
time step continuity errors : sum local = 2.3568985e-05, global = -1.0634369e-06, cumulative = -1.1589066e-05
DICPCG:  Solving for p_rgh, Initial residual = 7.1506049e-06, Final residual = 9.2433282e-08, No Iterations 57
time step continuity errors : sum local = 1.3056019e-06, global = -9.361456e-09, cumulative = -1.1598428e-05
ExecutionTime = 9.41 s  ClockTime = 9 s

fieldMinMax minmaxdomain write:
    min(p) = -76.324305 at location (0.01 0.51 0.61) on processor 0
    max(p) = 1960.3255 at location (0.15 0 0.61) on processor 0
    min(p_rgh) = -1.9550373 at location (0.07 0.43 0.59) on processor 0
    max(p_rgh) = 6858.8205 at location (0 0.69 0.67) on processor 3
    min(U) = (-0.41459231 -0.6961641 -0.35930377) at location (0.05 0.71 0.71) on processor 3
    max(U) = (0.17684246 0.46784087 0.40558979) at location (0.03 0.43 0.53) on processor 0
    min(alpha.water) = -2.7902184e-05 at location (0.03 0.45 0.69) on processor 0
    max(alpha.water) = 1.0000043 at location (0.03 0.51 0.61) on processor 0

volRegion water_in_domain write:
    volIntegrate() of alpha.water = 0.20480949

Courant Number mean: 0.03042277 max: 0.9336953
Interface Courant Number mean: 0.0029521774 max: 0.9336953
deltaT = 0.0071428571
Time = 0.128571

PIMPLE: iteration 1
smoothSolver:  Solving for alpha.water, Initial residual = 0.00074985705, Final residual = 9.7634497e-09, No Iterations 4
Phase-1 volume fraction = 0.2050952  Min(alpha.water) = -6.2705442e-06  Max(alpha.water) = 1.000004
MULES: Correcting alpha.water
MULES: Correcting alpha.water
Phase-1 volume fraction = 0.2050952  Min(alpha.water) = -2.2833679e-05  Max(alpha.water) = 1.000004
DICPCG:  Solving for p_rgh, Initial residual = 0.00072869122, Final residual = 3.0119863e-05, No Iterations 3
time step continuity errors : sum local = 0.00042523623, global = -6.0834119e-10, cumulative = -1.1599036e-05
DICPCG:  Solving for p_rgh, Initial residual = 3.470351e-05, Final residual = 1.4750701e-06, No Iterations 14
time step continuity errors : sum local = 2.0852551e-05, global = -6.7687199e-07, cumulative = -1.2275908e-05
DICPCG:  Solving for p_rgh, Initial residual = 6.4910463e-06, Final residual = 9.6479146e-08, No Iterations 57
time step continuity errors : sum local = 1.3639627e-06, global = -6.3262852e-09, cumulative = -1.2282235e-05
ExecutionTime = 9.74 s  ClockTime = 9 s

fieldMinMax minmaxdomain write:
    min(p) = -76.520359 at location (0.01 0.51 0.61) on processor 0
    max(p) = 1960.3425 at location (0.17 0 0.61) on processor 0
    min(p_rgh) = -1.3507168 at location (0 0.47 0.67) on processor 0
    max(p_rgh) = 6858.8502 at location (0 0.69 0.67) on processor 3
    min(U) = (-0.23772084 -0.14953499 -0.47674874) at location (0.11 0.35 0.49) on processor 0
    max(U) = (0.192987 0.43997882 0.42993462) at location (0.03 0.43 0.53) on processor 0
    min(alpha.water) = -2.2833679e-05 at location (0.03 0.45 0.51) on processor 0
    max(alpha.water) = 1.000004 at location (0.03 0.51 0.61) on processor 0

volRegion water_in_domain write:
    volIntegrate() of alpha.water = 0.2050952

Courant Number mean: 0.031613723 max: 0.95358292
Interface Courant Number mean: 0.0034877438 max: 0.95358292
deltaT = 0.0071428571
Time = 0.135714

PIMPLE: iteration 1
smoothSolver:  Solving for alpha.water, Initial residual = 0.00079199713, Final residual = 3.6291456e-10, No Iterations 5
Phase-1 volume fraction = 0.20538091  Min(alpha.water) = -1.2158644e-05  Max(alpha.water) = 1.000004
MULES: Correcting alpha.water
MULES: Correcting alpha.water
Phase-1 volume fraction = 0.20538091  Min(alpha.water) = -8.0061341e-06  Max(alpha.water) = 1.000004
DICPCG:  Solving for p_rgh, Initial residual = 0.00065434441, Final residual = 3.0062097e-05, No Iterations 3
time step continuity errors : sum local = 0.00042483022, global = -1.0664762e-10, cumulative = -1.2282341e-05
DICPCG:  Solving for p_rgh, Initial residual = 3.4911197e-05, Final residual = 1.5830142e-06, No Iterations 14
time step continuity errors : sum local = 2.2397491e-05, global = -9.7009634e-07, cumulative = -1.3252438e-05
DICPCG:  Solving for p_rgh, Initial residual = 6.6692875e-06, Final residual = 9.4036288e-08, No Iterations 59
time step continuity errors : sum local = 1.3305448e-06, global = 5.66809e-09, cumulative = -1.3246769e-05
ExecutionTime = 10.06 s  ClockTime = 10 s

fieldMinMax minmaxdomain write:
    min(p) = -76.598364 at location (0.01 0.51 0.61) on processor 0
    max(p) = 1960.3852 at location (0.19 0 0.61) on processor 0
    min(p_rgh) = -1.5261681 at location (0.07 0.41 0.59) on processor 0
    max(p_rgh) = 6858.8639 at location (0 0.69 0.67) on processor 3
    min(U) = (-0.24666448 -0.24371268 -0.4346634) at location (0.15 0.41 0.47) on processor 0
    max(U) = (0.18866365 0.40712235 0.44236167) at location (0.03 0.43 0.53) on processor 0
    min(alpha.water) = -8.0061341e-06 at location (0.03 0.47 0.69) on processor 0
    max(alpha.water) = 1.000004 at location (0.03 0.51 0.61) on processor 0

volRegion water_in_domain write:
    volIntegrate() of alpha.water = 0.20538091

Courant Number mean: 0.032935416 max: 0.97098272
Interface Courant Number mean: 0.0036676691 max: 0.97098272
deltaT = 0.0071428571
Time = 0.142857

PIMPLE: iteration 1
smoothSolver:  Solving for alpha.water, Initial residual = 0.00082724865, Final residual = 4.7019515e-10, No Iterations 5
Phase-1 volume fraction = 0.20566662  Min(alpha.water) = -3.6433423e-06  Max(alpha.water) = 1.0000042
MULES: Correcting alpha.water
MULES: Correcting alpha.water
Phase-1 volume fraction = 0.20566662  Min(alpha.water) = -6.8461603e-06  Max(alpha.water) = 1.0000042
DICPCG:  Solving for p_rgh, Initial residual = 0.00069564975, Final residual = 2.9044175e-05, No Iterations 3
time step continuity errors : sum local = 0.00041089386, global = 3.5611255e-08, cumulative = -1.3211158e-05
DICPCG:  Solving for p_rgh, Initial residual = 3.3575195e-05, Final residual = 1.5387154e-06, No Iterations 14
time step continuity errors : sum local = 2.1794793e-05, global = -6.4871015e-07, cumulative = -1.3859868e-05
DICPCG:  Solving for p_rgh, Initial residual = 6.4451538e-06, Final residual = 9.3734345e-08, No Iterations 57
time step continuity errors : sum local = 1.3277338e-06, global = -2.5237832e-08, cumulative = -1.3885106e-05
ExecutionTime = 10.38 s  ClockTime = 10 s

fieldMinMax minmaxdomain write:
    min(p) = -76.553913 at location (0.01 0.51 0.61) on processor 0
    max(p) = 1960.3965 at location (0.19 0 0.61) on processor 0
    min(p_rgh) = -1.2494283 at location (0 0.47 0.67) on processor 0
    max(p_rgh) = 6858.8888 at location (0 0.69 0.67) on processor 3
    min(U) = (-0.20362279 -0.19348951 -0.57059281) at location (0.13 0.33 0.49) on processor 0
    max(U) = (0.16783901 0.37718782 0.44194456) at location (0.03 0.43 0.53) on processor 0
    min(alpha.water) = -6.8461603e-06 at location (0.03 0.47 0.69) on processor 0
    max(alpha.water) = 1.0000042 at location (0.05 0.51 0.61) on processor 0

volRegion water_in_domain write:
    volIntegrate() of alpha.water = 0.20566662

Courant Number mean: 0.034239583 max: 1.0124489
Interface Courant Number mean: 0.0035861424 max: 1.0124489
deltaT = 0.0035714286
Time = 0.146429

PIMPLE: iteration 1
smoothSolver:  Solving for alpha.water, Initial residual = 0.00043733764, Final residual = 2.1168334e-10, No Iterations 4
Phase-1 volume fraction = 0.20580948  Min(alpha.water) = -3.8021586e-06  Max(alpha.water) = 1.0000031
MULES: Correcting alpha.water
MULES: Correcting alpha.water
Phase-1 volume fraction = 0.20580948  Min(alpha.water) = -3.963011e-08  Max(alpha.water) = 1.0000031
DICPCG:  Solving for p_rgh, Initial residual = 0.00075171582, Final residual = 3.102161e-05, No Iterations 2
time step continuity errors : sum local = 0.00011233388, global = -2.0351304e-08, cumulative = -1.3905457e-05
DICPCG:  Solving for p_rgh, Initial residual = 3.2406769e-05, Final residual = 1.5726919e-06, No Iterations 17
time step continuity errors : sum local = 5.6990138e-06, global = 1.8661505e-06, cumulative = -1.2039307e-05
DICPCG:  Solving for p_rgh, Initial residual = 3.6771637e-06, Final residual = 8.7829992e-08, No Iterations 52
time step continuity errors : sum local = 3.1828523e-07, global = -1.1813739e-08, cumulative = -1.2051121e-05
ExecutionTime = 10.7 s  ClockTime = 10 s

fieldMinMax minmaxdomain write:
    min(p) = -74.44219 at location (0.01 0.51 0.59) on processor 0
    max(p) = 1960.1297 at location (0.19 0 0.61) on processor 0
    min(p_rgh) = -0.80640217 at location (0.15 0.41 0.47) on processor 0
    max(p_rgh) = 6859.1696 at location (0 0.69 0.67) on processor 3
    min(U) = (-0.22349285 -0.21840898 -0.56823608) at location (0.13 0.33 0.49) on processor 0
    max(U) = (0.15093457 0.35304071 0.4356971) at location (0.03 0.43 0.53) on processor 0
    min(alpha.water) = -3.963011e-08 at location (0 0.47 0.69) on processor 0
    max(alpha.water) = 1.0000031 at location (0.05 0.51 0.61) on processor 0

volRegion water_in_domain write:
    volIntegrate() of alpha.water = 0.20580948

Courant Number mean: 0.017170792 max: 0.51429758
Interface Courant Number mean: 0.0017921031 max: 0.51429758
deltaT = 0.0035714286
Time = 0.15

PIMPLE: iteration 1
smoothSolver:  Solving for alpha.water, Initial residual = 0.00045107514, Final residual = 9.599232e-09, No Iterations 3
Phase-1 volume fraction = 0.20595233  Min(alpha.water) = -3.963011e-08  Max(alpha.water) = 1.0000021
MULES: Correcting alpha.water
MULES: Correcting alpha.water
Phase-1 volume fraction = 0.20595233  Min(alpha.water) = -4.8138828e-08  Max(alpha.water) = 1.0000021
DICPCG:  Solving for p_rgh, Initial residual = 0.00075444948, Final residual = 2.8373971e-05, No Iterations 2
time step continuity errors : sum local = 0.00010280715, global = -2.3216524e-08, cumulative = -1.2074337e-05
DICPCG:  Solving for p_rgh, Initial residual = 3.0086903e-05, Final residual = 1.3294849e-06, No Iterations 14
time step continuity errors : sum local = 4.8208531e-06, global = -3.1920768e-07, cumulative = -1.2393545e-05
DICPCG:  Solving for p_rgh, Initial residual = 3.7957636e-06, Final residual = 9.7926971e-08, No Iterations 54
time step continuity errors : sum local = 3.5510661e-07, global = 3.7997918e-09, cumulative = -1.2389745e-05
ExecutionTime = 11.29 s  ClockTime = 11 s

fieldMinMax minmaxdomain write:
    min(p) = -75.230767 at location (0.01 0.51 0.61) on processor 0
    max(p) = 1960.2419 at location (0.17 0 0.61) on processor 0
    min(p_rgh) = -1.7003446 at location (0.13 0.41 0.49) on processor 0
    max(p_rgh) = 6859.1699 at location (0 0.69 0.67) on processor 3
    min(U) = (-0.24284295 -0.24358012 -0.55528235) at location (0.13 0.33 0.49) on processor 0
    max(U) = (0.13492586 0.3391544 0.4357313) at location (0.03 0.43 0.53) on processor 0
    min(alpha.water) = -4.8138828e-08 at location (0 0.47 0.51) on processor 0
    max(alpha.water) = 1.0000021 at location (0.05 0.51 0.61) on processor 0

volRegion water_in_domain write:
    volIntegrate() of alpha.water = 0.20595233

Courant Number mean: 0.017343129 max: 0.51928224
Interface Courant Number mean: 0.00181648 max: 0.51928224
deltaT = 0.0041666667
Time = 0.154167

PIMPLE: iteration 1
smoothSolver:  Solving for alpha.water, Initial residual = 0.0005441375, Final residual = 4.8217463e-10, No Iterations 4
Phase-1 volume fraction = 0.206119  Min(alpha.water) = -4.8138828e-08  Max(alpha.water) = 1.0000018
MULES: Correcting alpha.water
MULES: Correcting alpha.water
Phase-1 volume fraction = 0.206119  Min(alpha.water) = -8.5948439e-07  Max(alpha.water) = 1.0000018
DICPCG:  Solving for p_rgh, Initial residual = 0.00065889653, Final residual = 1.9597557e-05, No Iterations 3
time step continuity errors : sum local = 9.616458e-05, global = 2.7405066e-08, cumulative = -1.236234e-05
DICPCG:  Solving for p_rgh, Initial residual = 2.233203e-05, Final residual = 1.1052912e-06, No Iterations 21
time step continuity errors : sum local = 5.4278413e-06, global = -1.4293814e-06, cumulative = -1.3791721e-05
DICPCG:  Solving for p_rgh, Initial residual = 3.4591499e-06, Final residual = 9.2300301e-08, No Iterations 54
time step continuity errors : sum local = 4.5327346e-07, global = 1.2019109e-08, cumulative = -1.3779702e-05
ExecutionTime = 11.61 s  ClockTime = 11 s

fieldMinMax minmaxdomain write:
    min(p) = -76.2935 at location (0.01 0.51 0.61) on processor 0
    max(p) = 1960.4146 at location (0.19 0 0.61) on processor 0
    min(p_rgh) = -1.2153302 at location (0.17 0.61 0.71) on processor 3
    max(p_rgh) = 6859.1758 at location (0 0.69 0.67) on processor 3
    min(U) = (-0.22744221 -0.27248998 -0.51335243) at location (0.17 0.39 0.47) on processor 0
    max(U) = (0.11864742 0.33056864 0.43538237) at location (0.03 0.43 0.53) on processor 0
    min(alpha.water) = -8.5948439e-07 at location (0 0.47 0.69) on processor 0
    max(alpha.water) = 1.0000018 at location (0.05 0.51 0.61) on processor 0

volRegion water_in_domain write:
    volIntegrate() of alpha.water = 0.206119

Courant Number mean: 0.020681314 max: 0.60390107
Interface Courant Number mean: 0.002392275 max: 0.60390107
deltaT = 0.0045833333
Time = 0.15875

PIMPLE: iteration 1
smoothSolver:  Solving for alpha.water, Initial residual = 0.00061971544, Final residual = 9.7459402e-10, No Iterations 4
Phase-1 volume fraction = 0.20630233  Min(alpha.water) = -8.5948439e-07  Max(alpha.water) = 1.0000013
MULES: Correcting alpha.water
MULES: Correcting alpha.water
Phase-1 volume fraction = 0.20630233  Min(alpha.water) = -2.202949e-06  Max(alpha.water) = 1.0000013
DICPCG:  Solving for p_rgh, Initial residual = 0.00067211991, Final residual = 2.2212317e-05, No Iterations 3
time step continuity errors : sum local = 0.00013129523, global = 3.2435742e-08, cumulative = -1.3747267e-05
DICPCG:  Solving for p_rgh, Initial residual = 2.5176313e-05, Final residual = 1.1370781e-06, No Iterations 15
time step continuity errors : sum local = 6.7262721e-06, global = -3.2817442e-07, cumulative = -1.4075441e-05
DICPCG:  Solving for p_rgh, Initial residual = 4.17062e-06, Final residual = 9.3335835e-08, No Iterations 57
time step continuity errors : sum local = 5.5212376e-07, global = 5.4359289e-09, cumulative = -1.4070005e-05
ExecutionTime = 11.96 s  ClockTime = 12 s

fieldMinMax minmaxdomain write:
    min(p) = -76.709382 at location (0.01 0.51 0.61) on processor 0
    max(p) = 1960.466 at location (0.21 0 0.61) on processor 0
    min(p_rgh) = -1.2775997 at location (0.17 0.61 0.71) on processor 3
    max(p_rgh) = 6859.2289 at location (0 0.69 0.67) on processor 3
    min(U) = (-0.37117667 -0.15579789 -0.41263396) at location (0.11 0.29 0.51) on processor 0
    max(U) = (0.10237006 0.32353982 0.43266608) at location (0.03 0.43 0.53) on processor 0
    min(alpha.water) = -2.202949e-06 at location (0 0.47 0.69) on processor 0
    max(alpha.water) = 1.0000013 at location (0.03 0.51 0.59) on processor 0

volRegion water_in_domain write:
    volIntegrate() of alpha.water = 0.20630233

Courant Number mean: 0.0233538 max: 0.67656406
Interface Courant Number mean: 0.0026225777 max: 0.67656406
deltaT = 0.00515625
Time = 0.163906

PIMPLE: iteration 1
smoothSolver:  Solving for alpha.water, Initial residual = 0.00072123989, Final residual = 2.1970164e-09, No Iterations 4
Phase-1 volume fraction = 0.20650858  Min(alpha.water) = -2.202949e-06  Max(alpha.water) = 1.0000015
MULES: Correcting alpha.water
MULES: Correcting alpha.water
Phase-1 volume fraction = 0.20650858  Min(alpha.water) = -8.4126669e-06  Max(alpha.water) = 1.0000015
DICPCG:  Solving for p_rgh, Initial residual = 0.00071639223, Final residual = 2.3443481e-05, No Iterations 3
time step continuity errors : sum local = 0.00017442349, global = 4.2900201e-09, cumulative = -1.4065715e-05
DICPCG:  Solving for p_rgh, Initial residual = 2.6976545e-05, Final residual = 1.3205578e-06, No Iterations 14
time step continuity errors : sum local = 9.8345245e-06, global = -2.3446901e-07, cumulative = -1.4300184e-05
DICPCG:  Solving for p_rgh, Initial residual = 4.8425747e-06, Final residual = 9.8798118e-08, No Iterations 56
time step continuity errors : sum local = 7.3578267e-07, global = -8.1243616e-10, cumulative = -1.4300997e-05
ExecutionTime = 12.28 s  ClockTime = 12 s

fieldMinMax minmaxdomain write:
    min(p) = -76.97192 at location (0.01 0.51 0.59) on processor 0
    max(p) = 1960.4943 at location (0.21 0 0.61) on processor 0
    min(p_rgh) = -1.2842113 at location (0 0.47 0.67) on processor 0
    max(p_rgh) = 6859.2559 at location (0 0.69 0.67) on processor 3
    min(U) = (-0.43451242 -0.11049879 -0.43373672) at location (0.11 0.29 0.51) on processor 0
    max(U) = (0.087577599 0.3187987 0.42862955) at location (0.03 0.43 0.53) on processor 0
    min(alpha.water) = -8.4126669e-06 at location (0.03 0.45 0.51) on processor 0
    max(alpha.water) = 1.0000015 at location (0.03 0.51 0.61) on processor 0

volRegion water_in_domain write:
    volIntegrate() of alpha.water = 0.20650858

Courant Number mean: 0.027050621 max: 0.7776987
Interface Courant Number mean: 0.0030004708 max: 0.7776987
deltaT = 0.00515625
Time = 0.169063

PIMPLE: iteration 1
smoothSolver:  Solving for alpha.water, Initial residual = 0.00075270988, Final residual = 2.4127833e-09, No Iterations 4
Phase-1 volume fraction = 0.20671483  Min(alpha.water) = -5.4309286e-06  Max(alpha.water) = 1.0000011
MULES: Correcting alpha.water
MULES: Correcting alpha.water
Phase-1 volume fraction = 0.20671483  Min(alpha.water) = -9.2901847e-06  Max(alpha.water) = 1.0000011
DICPCG:  Solving for p_rgh, Initial residual = 0.00070992064, Final residual = 2.1466474e-05, No Iterations 3
time step continuity errors : sum local = 0.00015946252, global = -1.3335435e-08, cumulative = -1.4314332e-05
DICPCG:  Solving for p_rgh, Initial residual = 2.4619118e-05, Final residual = 1.1045418e-06, No Iterations 14
time step continuity errors : sum local = 8.2130687e-06, global = 2.7398649e-08, cumulative = -1.4286933e-05
DICPCG:  Solving for p_rgh, Initial residual = 4.3275883e-06, Final residual = 9.6525545e-08, No Iterations 34
time step continuity errors : sum local = 7.1774689e-07, global = 3.7158124e-08, cumulative = -1.4249775e-05
ExecutionTime = 12.58 s  ClockTime = 12 s

fieldMinMax minmaxdomain write:
    min(p) = -76.804502 at location (0.01 0.51 0.61) on processor 0
    max(p) = 1960.4832 at location (0.21 0 0.61) on processor 0
    min(p_rgh) = -1.4416345 at location (0.15 0.39 0.49) on processor 0
    max(p_rgh) = 6859.2846 at location (0 0.69 0.53) on processor 3
    min(U) = (-0.18117057 -0.1365358 -0.64885351) at location (0.15 0.29 0.49) on processor 0
    max(U) = (0.07235825 0.45545726 0.32900834) at location (0.03 0.45 0.55) on processor 0
    min(alpha.water) = -9.2901847e-06 at location (0.03 0.45 0.51) on processor 0
    max(alpha.water) = 1.0000011 at location (0.05 0.51 0.59) on processor 0

volRegion water_in_domain write:
    volIntegrate() of alpha.water = 0.20671483

Courant Number mean: 0.027732957 max: 0.77688408
Interface Courant Number mean: 0.0031064567 max: 0.77688408
deltaT = 0.00515625
Time = 0.174219

PIMPLE: iteration 1
smoothSolver:  Solving for alpha.water, Initial residual = 0.00078467951, Final residual = 2.7793e-09, No Iterations 4
Phase-1 volume fraction = 0.20692108  Min(alpha.water) = -4.866093e-06  Max(alpha.water) = 1.0000016
MULES: Correcting alpha.water
MULES: Correcting alpha.water
Phase-1 volume fraction = 0.20692108  Min(alpha.water) = -8.4815025e-06  Max(alpha.water) = 1.0000016
DICPCG:  Solving for p_rgh, Initial residual = 0.00067020414, Final residual = 2.1626024e-05, No Iterations 3
time step continuity errors : sum local = 0.00016033291, global = 8.3290025e-08, cumulative = -1.4166485e-05
DICPCG:  Solving for p_rgh, Initial residual = 2.5112635e-05, Final residual = 1.1202557e-06, No Iterations 14
time step continuity errors : sum local = 8.3128393e-06, global = 2.8909725e-08, cumulative = -1.4137575e-05
DICPCG:  Solving for p_rgh, Initial residual = 4.4289152e-06, Final residual = 9.1009096e-08, No Iterations 57
time step continuity errors : sum local = 6.7533953e-07, global = -2.7731417e-10, cumulative = -1.4137853e-05
ExecutionTime = 12.9 s  ClockTime = 13 s

fieldMinMax minmaxdomain write:
    min(p) = -76.695635 at location (0.01 0.51 0.59) on processor 0
    max(p) = 1960.5459 at location (0.21 0 0.61) on processor 0
    min(p_rgh) = -1.2272948 at location (0.19 0.59 0.71) on processor 3
    max(p_rgh) = 6859.2753 at location (0 0.69 0.67) on processor 3
    min(U) = (-0.41599447 -0.18753253 -0.5285386) at location (0.13 0.27 0.51) on processor 0
    max(U) = (0.064277795 0.46102984 0.32137451) at location (0.03 0.45 0.55) on processor 0
    min(alpha.water) = -8.4815025e-06 at location (0.03 0.45 0.51) on processor 0
    max(alpha.water) = 1.0000016 at location (0.05 0.51 0.63) on processor 0

volRegion water_in_domain write:
    volIntegrate() of alpha.water = 0.20692108

Courant Number mean: 0.028456054 max: 0.78288655
Interface Courant Number mean: 0.003497257 max: 0.78288655
deltaT = 0.00515625
Time = 0.179375

PIMPLE: iteration 1
smoothSolver:  Solving for alpha.water, Initial residual = 0.00081215378, Final residual = 3.1237969e-09, No Iterations 4
Phase-1 volume fraction = 0.20712733  Min(alpha.water) = -5.0019178e-06  Max(alpha.water) = 1.000001
MULES: Correcting alpha.water
MULES: Correcting alpha.water
Phase-1 volume fraction = 0.20712733  Min(alpha.water) = -9.1211002e-06  Max(alpha.water) = 1.000001
DICPCG:  Solving for p_rgh, Initial residual = 0.00061566528, Final residual = 2.2296307e-05, No Iterations 3
time step continuity errors : sum local = 0.00016481407, global = -4.7090588e-08, cumulative = -1.4184943e-05
DICPCG:  Solving for p_rgh, Initial residual = 2.5968242e-05, Final residual = 1.1788858e-06, No Iterations 14
time step continuity errors : sum local = 8.7210989e-06, global = -3.047523e-07, cumulative = -1.4489696e-05
DICPCG:  Solving for p_rgh, Initial residual = 4.764819e-06, Final residual = 9.749153e-08, No Iterations 57
time step continuity errors : sum local = 7.2122395e-07, global = 4.8996763e-09, cumulative = -1.4484796e-05
ExecutionTime = 13.22 s  ClockTime = 13 s

fieldMinMax minmaxdomain write:
    min(p) = -76.616952 at location (0.01 0.51 0.59) on processor 0
    max(p) = 1960.6085 at location (0.23 0 0.61) on processor 0
    min(p_rgh) = -1.1665836 at location (0.21 0.59 0.53) on processor 3
    max(p_rgh) = 6859.2583 at location (0 0.69 0.67) on processor 3
    min(U) = (-0.47800966 -0.1507769 -0.53245845) at location (0.13 0.27 0.51) on processor 0
    max(U) = (0.043042422 0.33043237 0.31797461) at location (0.03 0.45 0.49) on processor 0
    min(alpha.water) = -9.1211002e-06 at location (0.03 0.45 0.51) on processor 0
    max(alpha.water) = 1.000001 at location (0.07 0.51 0.59) on processor 0

volRegion water_in_domain write:
    volIntegrate() of alpha.water = 0.20712733

Courant Number mean: 0.029218269 max: 0.80582841
Interface Courant Number mean: 0.0035514429 max: 0.80582841
deltaT = 0.00515625
Time = 0.184531

PIMPLE: iteration 1
smoothSolver:  Solving for alpha.water, Initial residual = 0.0008414383, Final residual = 3.3105441e-09, No Iterations 4
Phase-1 volume fraction = 0.20733358  Min(alpha.water) = -5.592508e-06  Max(alpha.water) = 1.0000009
MULES: Correcting alpha.water
MULES: Correcting alpha.water
Phase-1 volume fraction = 0.20733358  Min(alpha.water) = -1.1592776e-05  Max(alpha.water) = 1.0000009
DICPCG:  Solving for p_rgh, Initial residual = 0.0006513756, Final residual = 2.1305476e-05, No Iterations 3
time step continuity errors : sum local = 0.00015695628, global = 1.0911404e-08, cumulative = -1.4473885e-05
DICPCG:  Solving for p_rgh, Initial residual = 2.4865291e-05, Final residual = 1.1006121e-06, No Iterations 14
time step continuity errors : sum local = 8.1148164e-06, global = -1.0556496e-07, cumulative = -1.457945e-05
DICPCG:  Solving for p_rgh, Initial residual = 4.6732336e-06, Final residual = 9.6788872e-08, No Iterations 35
time step continuity errors : sum local = 7.1363012e-07, global = -1.6561494e-07, cumulative = -1.4745064e-05
ExecutionTime = 13.55 s  ClockTime = 13 s

fieldMinMax minmaxdomain write:
    min(p) = -76.621783 at location (0.01 0.51 0.59) on processor 0
    max(p) = 1960.6224 at location (0.23 0 0.61) on processor 0
    min(p_rgh) = -1.1647107 at location (0.21 0.57 0.49) on processor 3
    max(p_rgh) = 6859.2462 at location (0 0.69 0.67) on processor 3
    min(U) = (-0.39051774 -0.24942228 -0.6454709) at location (0.15 0.25 0.51) on processor 0
    max(U) = (0.037927225 0.33635158 0.31493867) at location (0.03 0.45 0.49) on processor 0
    min(alpha.water) = -1.1592776e-05 at location (0.03 0.45 0.51) on processor 0
    max(alpha.water) = 1.0000009 at location (0.01 0.51 0.63) on processor 0

volRegion water_in_domain write:
    volIntegrate() of alpha.water = 0.20733358

Courant Number mean: 0.0299487 max: 0.8260087
Interface Courant Number mean: 0.0036787079 max: 0.8260087
deltaT = 0.00515625
Time = 0.189688

PIMPLE: iteration 1
smoothSolver:  Solving for alpha.water, Initial residual = 0.00087403383, Final residual = 3.6874755e-09, No Iterations 4
Phase-1 volume fraction = 0.20753983  Min(alpha.water) = -7.4705084e-06  Max(alpha.water) = 1.0000013
MULES: Correcting alpha.water
MULES: Correcting alpha.water
Phase-1 volume fraction = 0.20753983  Min(alpha.water) = -9.345916e-06  Max(alpha.water) = 1.0000013
DICPCG:  Solving for p_rgh, Initial residual = 0.0006791356, Final residual = 2.0264093e-05, No Iterations 3
time step continuity errors : sum local = 0.00014870924, global = -3.288266e-07, cumulative = -1.5073891e-05
DICPCG:  Solving for p_rgh, Initial residual = 2.3754274e-05, Final residual = 1.1380929e-06, No Iterations 13
time step continuity errors : sum local = 8.358886e-06, global = -2.9520454e-07, cumulative = -1.5369096e-05
DICPCG:  Solving for p_rgh, Initial residual = 4.5831415e-06, Final residual = 9.9360128e-08, No Iterations 39
time step continuity errors : sum local = 7.2977085e-07, global = -1.9810744e-07, cumulative = -1.5567203e-05
ExecutionTime = 13.86 s  ClockTime = 13 s

fieldMinMax minmaxdomain write:
    min(p) = -76.616976 at location (0.01 0.51 0.61) on processor 0
    max(p) = 1960.6724 at location (0.23 0 0.61) on processor 0
    min(p_rgh) = -1.2542585 at location (0.17 0.33 0.71) on processor 0
    max(p_rgh) = 6859.2351 at location (0 0.69 0.67) on processor 3
    min(U) = (-0.20817898 -0.092895651 -0.7909669) at location (0.17 0.25 0.49) on processor 0
    max(U) = (0.032801733 0.34140813 0.31220864) at location (0.03 0.45 0.49) on processor 0
    min(alpha.water) = -9.345916e-06 at location (0.03 0.45 0.51) on processor 0
    max(alpha.water) = 1.0000013 at location (0.05 0.51 0.61) on processor 0

volRegion water_in_domain write:
    volIntegrate() of alpha.water = 0.20753983

Courant Number mean: 0.030652471 max: 0.8297993
Interface Courant Number mean: 0.0037921557 max: 0.8297993
deltaT = 0.00515625
Time = 0.194844

PIMPLE: iteration 1
smoothSolver:  Solving for alpha.water, Initial residual = 0.00090589037, Final residual = 4.2227517e-09, No Iterations 4
Phase-1 volume fraction = 0.20774609  Min(alpha.water) = -6.0581153e-06  Max(alpha.water) = 1.000002
MULES: Correcting alpha.water
MULES: Correcting alpha.water
Phase-1 volume fraction = 0.20774609  Min(alpha.water) = -8.4953432e-06  Max(alpha.water) = 1.000002
[...]
    min(alpha.water) = -6.6435175e-07 at location (0 0.39 0.33) on processor 0
    max(alpha.water) = 1.0000026 at location (0.99 0.01 0.01) on processor 1

volRegion water_in_domain write:
    volIntegrate() of alpha.water = 0.27986042

Courant Number mean: 0.12537628 max: 0.86475878
Interface Courant Number mean: 0.025871378 max: 0.54171712
deltaT = 0.005
Time = 2.95

PIMPLE: iteration 1
smoothSolver:  Solving for alpha.water, Initial residual = 0.0024783304, Final residual = 2.1515177e-09, No Iterations 3
Phase-1 volume fraction = 0.27986041  Min(alpha.water) = -6.6435175e-07  Max(alpha.water) = 1.0000026
MULES: Correcting alpha.water
MULES: Correcting alpha.water
Phase-1 volume fraction = 0.27986041  Min(alpha.water) = -7.4322855e-07  Max(alpha.water) = 1.0000026
DICPCG:  Solving for p_rgh, Initial residual = 0.0097629687, Final residual = 0.00048065755, No Iterations 1
time step continuity errors : sum local = 0.0021589076, global = 1.2050231e-07, cumulative = -0.00018323609
DICPCG:  Solving for p_rgh, Initial residual = 0.00052241251, Final residual = 2.2735828e-05, No Iterations 6
time step continuity errors : sum local = 0.000101657, global = 1.4207791e-07, cumulative = -0.00018309401
DICPCG:  Solving for p_rgh, Initial residual = 6.9124246e-05, Final residual = 9.845062e-08, No Iterations 63
time step continuity errors : sum local = 4.4022469e-07, global = 5.5098284e-08, cumulative = -0.00018303892
ExecutionTime = 255.11 s  ClockTime = 255 s

fieldMinMax minmaxdomain write:
    min(p) = -14.434235 at location (0.29 1 0.75) on processor 3
    max(p) = 3100.4023 at location (0.01 0 0.67) on processor 0
    min(p_rgh) = -1.4541144 at location (0.27 0.35 0.11) on processor 0
    max(p_rgh) = 3403.9343 at location (0.01 0.31 0.99) on processor 0
    min(U) = (-1.1066589 -0.36945954 -0.090674272) at location (0.55 0.31 0.01) on processor 0
    max(U) = (1.1539817 1.3274306 0.44694219) at location (0.27 0.35 0.05) on processor 0
    min(alpha.water) = -7.4322855e-07 at location (0 0.39 0.33) on processor 0
    max(alpha.water) = 1.0000026 at location (0.99 0.01 0.01) on processor 1

volRegion water_in_domain write:
    volIntegrate() of alpha.water = 0.27986041

Courant Number mean: 0.12499087 max: 0.88947828
Interface Courant Number mean: 0.025734789 max: 0.51456795
deltaT = 0.0055555556
Time = 2.95556

PIMPLE: iteration 1
smoothSolver:  Solving for alpha.water, Initial residual = 0.0027398779, Final residual = 3.9379128e-09, No Iterations 3
Phase-1 volume fraction = 0.27986039  Min(alpha.water) = -7.4322855e-07  Max(alpha.water) = 1.0000026
MULES: Correcting alpha.water
MULES: Correcting alpha.water
Phase-1 volume fraction = 0.27986039  Min(alpha.water) = -1.451927e-06  Max(alpha.water) = 1.0000026
DICPCG:  Solving for p_rgh, Initial residual = 0.010379383, Final residual = 0.00051435138, No Iterations 1
time step continuity errors : sum local = 0.0028154351, global = 5.1094273e-07, cumulative = -0.00018252797
DICPCG:  Solving for p_rgh, Initial residual = 0.00056407824, Final residual = 2.5694994e-05, No Iterations 6
time step continuity errors : sum local = 0.00013994764, global = 2.6936701e-07, cumulative = -0.00018225861
DICPCG:  Solving for p_rgh, Initial residual = 8.0539912e-05, Final residual = 9.7698017e-08, No Iterations 53
time step continuity errors : sum local = 5.3216729e-07, global = 1.3530374e-07, cumulative = -0.0001821233
ExecutionTime = 255.44 s  ClockTime = 255 s

fieldMinMax minmaxdomain write:
    min(p) = -14.647028 at location (0.29 1 0.75) on processor 3
    max(p) = 3098.9569 at location (0.01 0 0.67) on processor 0
    min(p_rgh) = -2.1735863 at location (0.27 0.33 0.13) on processor 0
    max(p_rgh) = 3453.4419 at location (0 0.33 0.99) on processor 0
    min(U) = (-1.1066172 -0.37127977 -0.09128807) at location (0.55 0.31 0.01) on processor 0
    max(U) = (1.3411783 1.007048 0.60999861) at location (0.29 0.35 0.03) on processor 0
    min(alpha.water) = -1.451927e-06 at location (0 0.39 0.33) on processor 0
    max(alpha.water) = 1.0000026 at location (0.99 0.01 0.01) on processor 1

volRegion water_in_domain write:
    volIntegrate() of alpha.water = 0.27986039

Courant Number mean: 0.13838555 max: 0.99655629
Interface Courant Number mean: 0.028567193 max: 0.56734585
deltaT = 0.0055555556
Time = 2.96111

PIMPLE: iteration 1
smoothSolver:  Solving for alpha.water, Initial residual = 0.0027216589, Final residual = 3.9751962e-09, No Iterations 3
Phase-1 volume fraction = 0.27986036  Min(alpha.water) = -1.451927e-06  Max(alpha.water) = 1.0000027
MULES: Correcting alpha.water
MULES: Correcting alpha.water
Phase-1 volume fraction = 0.27986036  Min(alpha.water) = -1.8946508e-06  Max(alpha.water) = 1.0000027
DICPCG:  Solving for p_rgh, Initial residual = 0.010340756, Final residual = 0.00051098105, No Iterations 1
time step continuity errors : sum local = 0.002798963, global = 4.817026e-07, cumulative = -0.0001816416
DICPCG:  Solving for p_rgh, Initial residual = 0.00055893005, Final residual = 2.4872648e-05, No Iterations 6
time step continuity errors : sum local = 0.00013557179, global = 3.4238423e-07, cumulative = -0.00018129922
DICPCG:  Solving for p_rgh, Initial residual = 7.8132391e-05, Final residual = 9.7262832e-08, No Iterations 64
time step continuity errors : sum local = 5.3018757e-07, global = 6.0041486e-08, cumulative = -0.00018123917
ExecutionTime = 255.78 s  ClockTime = 256 s

fieldMinMax minmaxdomain write:
    min(p) = -14.875871 at location (0.29 1 0.75) on processor 3
    max(p) = 3097.445 at location (0.01 0 0.67) on processor 0
    min(p_rgh) = -1.3146363 at location (0.27 0.35 0.11) on processor 0
    max(p_rgh) = 3473.2838 at location (0 0.33 0.99) on processor 0
    min(U) = (-1.1070669 -0.36382387 -0.091544562) at location (0.55 0.31 0.01) on processor 0
    max(U) = (0.67621105 1.4787825 0.44837781) at location (0.23 0.35 0.05) on processor 0
    min(alpha.water) = -1.8946508e-06 at location (0 0.39 0.33) on processor 0
    max(alpha.water) = 1.0000027 at location (0.99 0.01 0.01) on processor 1

volRegion water_in_domain write:
    volIntegrate() of alpha.water = 0.27986036

Courant Number mean: 0.1379033 max: 0.99367976
Interface Courant Number mean: 0.028468024 max: 0.61795618
deltaT = 0.0055555556
Time = 2.96667

PIMPLE: iteration 1
smoothSolver:  Solving for alpha.water, Initial residual = 0.0027042346, Final residual = 3.9923727e-09, No Iterations 3
Phase-1 volume fraction = 0.27986034  Min(alpha.water) = -1.8946508e-06  Max(alpha.water) = 1.0000027
MULES: Correcting alpha.water
MULES: Correcting alpha.water
Phase-1 volume fraction = 0.27986034  Min(alpha.water) = -1.8895923e-06  Max(alpha.water) = 1.0000027
DICPCG:  Solving for p_rgh, Initial residual = 0.010357513, Final residual = 0.00050696148, No Iterations 1
time step continuity errors : sum local = 0.0027766407, global = 6.7545807e-07, cumulative = -0.00018056372
DICPCG:  Solving for p_rgh, Initial residual = 0.00055504886, Final residual = 2.4965955e-05, No Iterations 6
time step continuity errors : sum local = 0.00013607331, global = 1.1146931e-07, cumulative = -0.00018045225
DICPCG:  Solving for p_rgh, Initial residual = 7.7818719e-05, Final residual = 9.9719809e-08, No Iterations 49
time step continuity errors : sum local = 5.4354701e-07, global = 1.0523288e-07, cumulative = -0.00018034701
ExecutionTime = 256.1 s  ClockTime = 256 s

fieldMinMax minmaxdomain write:
    min(p) = -14.935725 at location (0.29 1 0.75) on processor 3
    max(p) = 3094.7686 at location (0.01 0 0.67) on processor 0
    min(p_rgh) = -1.1719474 at location (0.21 0.37 0.47) on processor 0
    max(p_rgh) = 3483.8515 at location (0 0.33 0.99) on processor 0
    min(U) = (-1.0666805 -0.36732637 -0.035344343) at location (0.53 0.31 0.01) on processor 0
    max(U) = (0.77022877 1.7196496 0.33267705) at location (0.19 0.99 0.71) on processor 3
    min(alpha.water) = -1.8895923e-06 at location (0 0.39 0.33) on processor 0
    max(alpha.water) = 1.0000027 at location (0.99 0.01 0.01) on processor 1

volRegion water_in_domain write:
    volIntegrate() of alpha.water = 0.27986034

Courant Number mean: 0.13741895 max: 0.98097518
Interface Courant Number mean: 0.028349017 max: 0.59488298
deltaT = 0.0055555556
Time = 2.97222

PIMPLE: iteration 1
smoothSolver:  Solving for alpha.water, Initial residual = 0.0026865558, Final residual = 3.9713074e-09, No Iterations 3
Phase-1 volume fraction = 0.27986032  Min(alpha.water) = -1.8895923e-06  Max(alpha.water) = 1.0000027
MULES: Correcting alpha.water
MULES: Correcting alpha.water
Phase-1 volume fraction = 0.27986032  Min(alpha.water) = -1.0956555e-06  Max(alpha.water) = 1.0000027
DICPCG:  Solving for p_rgh, Initial residual = 0.010247753, Final residual = 0.00050295693, No Iterations 1
time step continuity errors : sum local = 0.002754121, global = 8.5247046e-07, cumulative = -0.00017949454
DICPCG:  Solving for p_rgh, Initial residual = 0.00055107595, Final residual = 2.4986301e-05, No Iterations 6
time step continuity errors : sum local = 0.00013617369, global = 2.9860308e-07, cumulative = -0.00017919594
DICPCG:  Solving for p_rgh, Initial residual = 7.754457e-05, Final residual = 9.5548582e-08, No Iterations 64
time step continuity errors : sum local = 5.2076918e-07, global = 6.2386019e-08, cumulative = -0.00017913355
ExecutionTime = 256.43 s  ClockTime = 256 s

fieldMinMax minmaxdomain write:
    min(p) = -14.195791 at location (0.29 1 0.75) on processor 3
    max(p) = 3092.507 at location (0.01 0 0.67) on processor 0
    min(p_rgh) = -1.2274525 at location (0.21 0.37 0.47) on processor 0
    max(p_rgh) = 3490.3906 at location (0 0.33 0.99) on processor 0
    min(U) = (-1.0761838 -0.36076468 -0.036189512) at location (0.53 0.31 0.01) on processor 0
    max(U) = (0.77756631 1.7239081 0.26615549) at location (0.19 0.99 0.71) on processor 3
    min(alpha.water) = -1.0956555e-06 at location (0 0.37 0.35) on processor 0
    max(alpha.water) = 1.0000027 at location (0.99 0.01 0.01) on processor 1

volRegion water_in_domain write:
    volIntegrate() of alpha.water = 0.27986032

Courant Number mean: 0.13693324 max: 0.96261195
Interface Courant Number mean: 0.028200835 max: 0.58057444
deltaT = 0.0055555556
Time = 2.97778

PIMPLE: iteration 1
smoothSolver:  Solving for alpha.water, Initial residual = 0.0026676605, Final residual = 3.9397585e-09, No Iterations 3
Phase-1 volume fraction = 0.2798603  Min(alpha.water) = -1.0956555e-06  Max(alpha.water) = 1.0000027
MULES: Correcting alpha.water
MULES: Correcting alpha.water
Phase-1 volume fraction = 0.2798603  Min(alpha.water) = -6.4584346e-07  Max(alpha.water) = 1.0000027
DICPCG:  Solving for p_rgh, Initial residual = 0.010313684, Final residual = 0.00049940747, No Iterations 1
time step continuity errors : sum local = 0.0027389805, global = 8.4722737e-07, cumulative = -0.00017828633
DICPCG:  Solving for p_rgh, Initial residual = 0.0005477417, Final residual = 2.4579492e-05, No Iterations 6
time step continuity errors : sum local = 0.00013415898, global = 1.508693e-07, cumulative = -0.00017813546
DICPCG:  Solving for p_rgh, Initial residual = 7.704093e-05, Final residual = 9.465185e-08, No Iterations 52
time step continuity errors : sum local = 5.1666386e-07, global = 1.2793376e-07, cumulative = -0.00017800752
ExecutionTime = 256.74 s  ClockTime = 257 s

fieldMinMax minmaxdomain write:
    min(p) = -14.006753 at location (0.25 1 0.77) on processor 3
    max(p) = 3090.5155 at location (0.01 0 0.67) on processor 0
    min(p_rgh) = -1.2340892 at location (0.21 0.37 0.47) on processor 0
    max(p_rgh) = 3497.0339 at location (0.01 0.35 0.99) on processor 0
    min(U) = (-1.0863612 -0.34518194 -0.039712745) at location (0.53 0.31 0.01) on processor 0
    max(U) = (0.78315582 1.6047762 0.19617514) at location (0.13 0.35 0.01) on processor 0
    min(alpha.water) = -6.4584346e-07 at location (0 0.37 0.35) on processor 0
    max(alpha.water) = 1.0000027 at location (0.99 0.01 0.01) on processor 1

volRegion water_in_domain write:
    volIntegrate() of alpha.water = 0.2798603

Courant Number mean: 0.13645426 max: 0.94540661
Interface Courant Number mean: 0.028073495 max: 0.63884302
deltaT = 0.0055555556
Time = 2.98333

PIMPLE: iteration 1
smoothSolver:  Solving for alpha.water, Initial residual = 0.0026473815, Final residual = 3.9984045e-09, No Iterations 3
Phase-1 volume fraction = 0.27986028  Min(alpha.water) = -6.4584346e-07  Max(alpha.water) = 1.0000027
MULES: Correcting alpha.water
MULES: Correcting alpha.water
Phase-1 volume fraction = 0.27986028  Min(alpha.water) = -3.4940318e-07  Max(alpha.water) = 1.0000027
DICPCG:  Solving for p_rgh, Initial residual = 0.010304853, Final residual = 0.00049506132, No Iterations 1
time step continuity errors : sum local = 0.0027155709, global = 1.1601047e-06, cumulative = -0.00017684742
DICPCG:  Solving for p_rgh, Initial residual = 0.00054238536, Final residual = 2.3952825e-05, No Iterations 6
time step continuity errors : sum local = 0.00013076476, global = 3.7432393e-07, cumulative = -0.0001764731
DICPCG:  Solving for p_rgh, Initial residual = 7.5994442e-05, Final residual = 9.3490318e-08, No Iterations 64
time step continuity errors : sum local = 5.1042502e-07, global = 5.7523792e-08, cumulative = -0.00017641557
ExecutionTime = 257.07 s  ClockTime = 257 s

fieldMinMax minmaxdomain write:
    min(p) = -13.843158 at location (0.25 1 0.77) on processor 3
    max(p) = 3088.0537 at location (0.01 0 0.67) on processor 0
    min(p_rgh) = -1.2273363 at location (0.21 0.37 0.47) on processor 0
    max(p_rgh) = 3534.4847 at location (0 0.35 0.99) on processor 0
    min(U) = (-1.0893998 -0.3276902 -0.0474541) at location (0.53 0.31 0.01) on processor 0
    max(U) = (0.64163844 1.5548825 0.33245511) at location (0.13 0.37 0.01) on processor 0
    min(alpha.water) = -3.4940318e-07 at location (0 0.37 0.35) on processor 0
    max(alpha.water) = 1.0000027 at location (0.99 0.01 0.01) on processor 1

volRegion water_in_domain write:
    volIntegrate() of alpha.water = 0.27986028

Courant Number mean: 0.13596642 max: 0.92439581
Interface Courant Number mean: 0.027937924 max: 0.62335514
deltaT = 0.0055555556
Time = 2.98889

PIMPLE: iteration 1
smoothSolver:  Solving for alpha.water, Initial residual = 0.0026237799, Final residual = 4.2820246e-09, No Iterations 3
Phase-1 volume fraction = 0.27986026  Min(alpha.water) = -3.4940318e-07  Max(alpha.water) = 1.0000027
MULES: Correcting alpha.water
MULES: Correcting alpha.water
Phase-1 volume fraction = 0.27986026  Min(alpha.water) = -8.3246574e-08  Max(alpha.water) = 1.0000027
DICPCG:  Solving for p_rgh, Initial residual = 0.010200151, Final residual = 0.00048007216, No Iterations 1
time step continuity errors : sum local = 0.0026374484, global = 9.8104102e-07, cumulative = -0.00017543453
DICPCG:  Solving for p_rgh, Initial residual = 0.00052596933, Final residual = 2.2720614e-05, No Iterations 6
time step continuity errors : sum local = 0.00012423703, global = 1.2945958e-07, cumulative = -0.00017530507
DICPCG:  Solving for p_rgh, Initial residual = 7.3049321e-05, Final residual = 9.500893e-08, No Iterations 49
time step continuity errors : sum local = 5.1955074e-07, global = 9.9657638e-08, cumulative = -0.00017520541
ExecutionTime = 257.39 s  ClockTime = 257 s

fieldMinMax minmaxdomain write:
    min(p) = -13.66478 at location (0.25 1 0.77) on processor 3
    max(p) = 3086.3216 at location (0.01 0 0.67) on processor 0
    min(p_rgh) = -1.1905354 at location (0.21 0.37 0.47) on processor 0
    max(p_rgh) = 3547.3212 at location (0 0.35 0.99) on processor 0
    min(U) = (-1.1001135 -0.29332484 -0.053708266) at location (0.53 0.31 0.01) on processor 0
    max(U) = (0.70721825 1.6308423 0.28377536) at location (0.13 0.37 0.01) on processor 0
    min(alpha.water) = -8.3246574e-08 at location (0.67 0.31 0.23) on processor 1
    max(alpha.water) = 1.0000027 at location (0.99 0.01 0.01) on processor 1

volRegion water_in_domain write:
    volIntegrate() of alpha.water = 0.27986026

Courant Number mean: 0.13546417 max: 0.90124232
Interface Courant Number mean: 0.027847479 max: 0.60346621
deltaT = 0.0055555556
Time = 2.99444

PIMPLE: iteration 1
smoothSolver:  Solving for alpha.water, Initial residual = 0.0025966328, Final residual = 4.8781984e-09, No Iterations 3
Phase-1 volume fraction = 0.27986024  Min(alpha.water) = -2.7413882e-09  Max(alpha.water) = 1.0000026
MULES: Correcting alpha.water
MULES: Correcting alpha.water
Phase-1 volume fraction = 0.27986024  Min(alpha.water) = -6.7182325e-07  Max(alpha.water) = 1.0000026
DICPCG:  Solving for p_rgh, Initial residual = 0.010281471, Final residual = 0.00047717102, No Iterations 1
time step continuity errors : sum local = 0.002632097, global = 1.2157529e-06, cumulative = -0.00017398966
DICPCG:  Solving for p_rgh, Initial residual = 0.00052216491, Final residual = 2.1746941e-05, No Iterations 6
time step continuity errors : sum local = 0.00011939327, global = 3.438179e-07, cumulative = -0.00017364584
DICPCG:  Solving for p_rgh, Initial residual = 7.1788088e-05, Final residual = 9.5587426e-08, No Iterations 62
time step continuity errors : sum local = 5.2482596e-07, global = 8.1347942e-08, cumulative = -0.00017356449
ExecutionTime = 257.7 s  ClockTime = 258 s

fieldMinMax minmaxdomain write:
    min(p) = -13.511591 at location (0.25 1 0.77) on processor 3
    max(p) = 3083.5819 at location (0.01 0 0.67) on processor 0
    min(p_rgh) = -1.1936562 at location (0.21 0.37 0.47) on processor 0
    max(p_rgh) = 3557.648 at location (0 0.35 0.99) on processor 0
    min(U) = (-0.9491421 -0.37634145 -0.093877448) at location (0.59 0.31 0.01) on processor 1
    max(U) = (0.64210644 1.8394653 0.072894125) at location (0.15 0.35 0.01) on processor 0
    min(alpha.water) = -6.7182325e-07 at location (0.65 0.31 0.23) on processor 1
    max(alpha.water) = 1.0000026 at location (0.99 0.01 0.01) on processor 1

volRegion water_in_domain write:
    volIntegrate() of alpha.water = 0.27986024

Courant Number mean: 0.13497122 max: 0.87819633
Interface Courant Number mean: 0.027708992 max: 0.63004988
deltaT = 0.0055555556
Time = 3

PIMPLE: iteration 1
smoothSolver:  Solving for alpha.water, Initial residual = 0.0025728337, Final residual = 5.8340781e-09, No Iterations 3
Phase-1 volume fraction = 0.27986023  Min(alpha.water) = -2.3334694e-08  Max(alpha.water) = 1.0000027
MULES: Correcting alpha.water
MULES: Correcting alpha.water
Phase-1 volume fraction = 0.27986023  Min(alpha.water) = -2.3459285e-06  Max(alpha.water) = 1.0000027
DICPCG:  Solving for p_rgh, Initial residual = 0.010159892, Final residual = 0.00047722242, No Iterations 1
time step continuity errors : sum local = 0.0026360396, global = 9.7232972e-07, cumulative = -0.00017259216
DICPCG:  Solving for p_rgh, Initial residual = 0.00052230496, Final residual = 2.1758431e-05, No Iterations 6
time step continuity errors : sum local = 0.00011964357, global = 1.7997491e-07, cumulative = -0.00017241219
DICPCG:  Solving for p_rgh, Initial residual = 7.1826989e-05, Final residual = 9.7846378e-08, No Iterations 51
time step continuity errors : sum local = 5.3806879e-07, global = 1.2900191e-07, cumulative = -0.00017228319
ExecutionTime = 258.3 s  ClockTime = 258 s

fieldMinMax minmaxdomain write:
    min(p) = -13.395178 at location (0.25 1 0.77) on processor 3
    max(p) = 3080.9975 at location (0.01 0 0.67) on processor 0
    min(p_rgh) = -1.1145099 at location (0.21 0.37 0.47) on processor 0
    max(p_rgh) = 3563.9492 at location (0 0.35 0.99) on processor 0
    min(U) = (-0.93843778 -0.50293936 -0.26060089) at location (0.91 0.39 0.69) on processor 1
    max(U) = (0.72282582 1.6174036 0.19394882) at location (0.13 0.37 0.03) on processor 0
    min(alpha.water) = -2.3459285e-06 at location (0.63 0.31 0.23) on processor 1
    max(alpha.water) = 1.0000027 at location (0.99 0.01 0.01) on processor 1

volRegion water_in_domain write:
    volIntegrate() of alpha.water = 0.27986023

End

Finalising parallel run
