/*---------------------------------------------------------------------------*\
  =========                 |
  \\      /  F ield         | OpenFOAM: The Open Source CFD Toolbox
   \\    /   O peration     | Website:  https://openfoam.org
    \\  /    A nd           | Version:  9
     \\/     M anipulation  |
\*---------------------------------------------------------------------------*/
Build  : 9-c8374a4890ad
Exec   : simpleFoam
Date   : Dec 31 2021
Time   : 11:49:04
Host   : "endeavouros"
PID    : 131289
I/O    : uncollated
Case   : /home/ariedinger/uni/gimap/openfoam/03wiki3weeksSeries/day02/02taylorCouetteFlow/00baseCase
nProcs : 1
sigFpe : Enabling floating point exception trapping (FOAM_SIGFPE).
fileModificationChecking : Monitoring run-time modified files using timeStampMaster (fileModificationSkew 10)
allowSystemOperations : Allowing user-supplied system call operations

// * * * * * * * * * * * * * * * * * * * * * * * * * * * * * * * * * * * * * //
Create time

Create mesh for time = 0


SIMPLE: Convergence criteria found
        U: tolerance 0.0001
        p: tolerance 0.001

Reading field p

Reading field U

Reading/calculating face flux field phi

Selecting incompressible transport model Newtonian
Selecting turbulence model type laminar
Selecting laminar stress model Stokes
No MRF models present

No fvModels present
No fvConstraints present

Starting time loop

Time = 1

smoothSolver:  Solving for Ux, Initial residual = 1, Final residual = 0.0667125723, No Iterations 3
smoothSolver:  Solving for Uy, Initial residual = 1, Final residual = 0.066708752, No Iterations 3
smoothSolver:  Solving for Uz, Initial residual = 0.99999969, Final residual = 0.0947027359, No Iterations 2
GAMG:  Solving for p, Initial residual = 1, Final residual = 0.040613049, No Iterations 2
time step continuity errors : sum local = 0.0542052637, global = -1.97089164e-17, cumulative = -1.97089164e-17
ExecutionTime = 4.23 s  ClockTime = 4 s

Time = 2

smoothSolver:  Solving for Ux, Initial residual = 0.0825773624, Final residual = 0.00758210233, No Iterations 7
smoothSolver:  Solving for Uy, Initial residual = 0.0826096748, Final residual = 0.00759625184, No Iterations 7
smoothSolver:  Solving for Uz, Initial residual = 0.700998359, Final residual = 0.0355028895, No Iterations 2
GAMG:  Solving for p, Initial residual = 0.858388291, Final residual = 0.0295911798, No Iterations 3
time step continuity errors : sum local = 0.161765855, global = -1.05386388e-17, cumulative = -3.02475552e-17
ExecutionTime = 5.79 s  ClockTime = 6 s

Time = 3

smoothSolver:  Solving for Ux, Initial residual = 0.0464026271, Final residual = 0.00387252481, No Iterations 9
smoothSolver:  Solving for Uy, Initial residual = 0.0464044671, Final residual = 0.00387968685, No Iterations 9
smoothSolver:  Solving for Uz, Initial residual = 0.57211416, Final residual = 0.0452040962, No Iterations 2
GAMG:  Solving for p, Initial residual = 0.309446756, Final residual = 0.01014512, No Iterations 3
time step continuity errors : sum local = 0.114651863, global = -4.81802525e-17, cumulative = -7.84278077e-17
ExecutionTime = 7.42 s  ClockTime = 7 s

Time = 4

smoothSolver:  Solving for Ux, Initial residual = 0.0355494004, Final residual = 0.00305095855, No Iterations 9
smoothSolver:  Solving for Uy, Initial residual = 0.0355330807, Final residual = 0.00305906249, No Iterations 9
smoothSolver:  Solving for Uz, Initial residual = 0.454926742, Final residual = 0.0421249345, No Iterations 2
GAMG:  Solving for p, Initial residual = 0.185860528, Final residual = 0.00671775966, No Iterations 3
time step continuity errors : sum local = 0.107575682, global = -3.76410904e-17, cumulative = -1.16068898e-16
ExecutionTime = 9.06 s  ClockTime = 9 s

Time = 5

smoothSolver:  Solving for Ux, Initial residual = 0.0300153664, Final residual = 0.00251469128, No Iterations 9
smoothSolver:  Solving for Uy, Initial residual = 0.0300093021, Final residual = 0.00251940271, No Iterations 9
smoothSolver:  Solving for Uz, Initial residual = 0.350698774, Final residual = 0.0235921381, No Iterations 3
GAMG:  Solving for p, Initial residual = 0.122066034, Final residual = 0.00477006342, No Iterations 3
time step continuity errors : sum local = 0.0953240829, global = -2.12788388e-17, cumulative = -1.37347737e-16
ExecutionTime = 10.73 s  ClockTime = 11 s

Time = 6

smoothSolver:  Solving for Ux, Initial residual = 0.0248277147, Final residual = 0.00210245311, No Iterations 9
smoothSolver:  Solving for Uy, Initial residual = 0.0248137882, Final residual = 0.00210751901, No Iterations 9
smoothSolver:  Solving for Uz, Initial residual = 0.285682996, Final residual = 0.0197977813, No Iterations 3
GAMG:  Solving for p, Initial residual = 0.0893058465, Final residual = 0.00388410236, No Iterations 3
time step continuity errors : sum local = 0.090257982, global = -2.38676693e-17, cumulative = -1.61215406e-16
ExecutionTime = 12.34 s  ClockTime = 12 s

Time = 7

smoothSolver:  Solving for Ux, Initial residual = 0.0212019734, Final residual = 0.00178584067, No Iterations 9
smoothSolver:  Solving for Uy, Initial residual = 0.0211945378, Final residual = 0.00179071772, No Iterations 9
smoothSolver:  Solving for Uz, Initial residual = 0.235018885, Final residual = 0.0167339158, No Iterations 3
GAMG:  Solving for p, Initial residual = 0.0693692801, Final residual = 0.00315621811, No Iterations 3
time step continuity errors : sum local = 0.0820306914, global = -8.07040317e-18, cumulative = -1.69285809e-16
ExecutionTime = 13.98 s  ClockTime = 14 s

Time = 8

smoothSolver:  Solving for Ux, Initial residual = 0.0184809132, Final residual = 0.00152241398, No Iterations 9
smoothSolver:  Solving for Uy, Initial residual = 0.0184745405, Final residual = 0.00152666316, No Iterations 9
smoothSolver:  Solving for Uz, Initial residual = 0.19742625, Final residual = 0.0141330716, No Iterations 3
GAMG:  Solving for p, Initial residual = 0.0562854624, Final residual = 0.00247871046, No Iterations 3
time step continuity errors : sum local = 0.0702899907, global = -5.01522596e-17, cumulative = -2.19438069e-16
ExecutionTime = 15.6 s  ClockTime = 16 s

Time = 9

smoothSolver:  Solving for Ux, Initial residual = 0.0162749504, Final residual = 0.00160683496, No Iterations 8
smoothSolver:  Solving for Uy, Initial residual = 0.0162750888, Final residual = 0.00161164547, No Iterations 8
smoothSolver:  Solving for Uz, Initial residual = 0.170007547, Final residual = 0.0121634812, No Iterations 3
GAMG:  Solving for p, Initial residual = 0.0462065914, Final residual = 0.00180441482, No Iterations 3
time step continuity errors : sum local = 0.0548711044, global = -2.81467119e-17, cumulative = -2.47584781e-16
ExecutionTime = 17.23 s  ClockTime = 17 s

Time = 10

smoothSolver:  Solving for Ux, Initial residual = 0.0143588556, Final residual = 0.00137888209, No Iterations 8
smoothSolver:  Solving for Uy, Initial residual = 0.0143622802, Final residual = 0.00138359973, No Iterations 8
smoothSolver:  Solving for Uz, Initial residual = 0.14999915, Final residual = 0.0107350628, No Iterations 3
GAMG:  Solving for p, Initial residual = 0.0397707686, Final residual = 0.00394533198, No Iterations 2
time step continuity errors : sum local = 0.1271879, global = -2.4892499e-17, cumulative = -2.7247728e-16
ExecutionTime = 18.76 s  ClockTime = 19 s

Time = 11

smoothSolver:  Solving for Ux, Initial residual = 0.013341067, Final residual = 0.00110265668, No Iterations 9
smoothSolver:  Solving for Uy, Initial residual = 0.0133344363, Final residual = 0.0011045363, No Iterations 9
smoothSolver:  Solving for Uz, Initial residual = 0.139205191, Final residual = 0.00979562275, No Iterations 3
GAMG:  Solving for p, Initial residual = 0.0375585926, Final residual = 0.00168568793, No Iterations 3
time step continuity errors : sum local = 0.0572121016, global = -3.11535604e-17, cumulative = -3.0363084e-16
ExecutionTime = 20.42 s  ClockTime = 21 s

Time = 12

smoothSolver:  Solving for Ux, Initial residual = 0.0120096343, Final residual = 0.00106127157, No Iterations 8
smoothSolver:  Solving for Uy, Initial residual = 0.0120128256, Final residual = 0.00106411035, No Iterations 8
smoothSolver:  Solving for Uz, Initial residual = 0.127883884, Final residual = 0.0091591063, No Iterations 3
GAMG:  Solving for p, Initial residual = 0.0312425086, Final residual = 0.00278501828, No Iterations 2
time step continuity errors : sum local = 0.0987384542, global = -6.99560525e-17, cumulative = -3.73586893e-16
ExecutionTime = 21.97 s  ClockTime = 22 s

Time = 13

smoothSolver:  Solving for Ux, Initial residual = 0.0109552534, Final residual = 0.00102739509, No Iterations 8
smoothSolver:  Solving for Uy, Initial residual = 0.0109553964, Final residual = 0.00102954099, No Iterations 8
smoothSolver:  Solving for Uz, Initial residual = 0.117017477, Final residual = 0.00867338676, No Iterations 3
GAMG:  Solving for p, Initial residual = 0.0292062267, Final residual = 0.00112803464, No Iterations 3
time step continuity errors : sum local = 0.0416085841, global = -2.78797775e-17, cumulative = -4.0146667e-16
ExecutionTime = 24.51 s  ClockTime = 25 s

Time = 14

smoothSolver:  Solving for Ux, Initial residual = 0.00997407711, Final residual = 0.000809706921, No Iterations 8
smoothSolver:  Solving for Uy, Initial residual = 0.00998396867, Final residual = 0.000812848737, No Iterations 8
smoothSolver:  Solving for Uz, Initial residual = 0.111839346, Final residual = 0.00856094874, No Iterations 3
GAMG:  Solving for p, Initial residual = 0.0254636882, Final residual = 0.0019981745, No Iterations 2
time step continuity errors : sum local = 0.0763604451, global = 5.14788381e-17, cumulative = -3.49987832e-16
ExecutionTime = 27.12 s  ClockTime = 27 s

Time = 15

smoothSolver:  Solving for Ux, Initial residual = 0.0092825622, Final residual = 0.000792250456, No Iterations 8
smoothSolver:  Solving for Uy, Initial residual = 0.00929117581, Final residual = 0.000794986581, No Iterations 8
smoothSolver:  Solving for Uz, Initial residual = 0.104467299, Final residual = 0.00839506945, No Iterations 3
GAMG:  Solving for p, Initial residual = 0.0238967357, Final residual = 0.00209648712, No Iterations 2
time step continuity errors : sum local = 0.0827766081, global = 1.57531725e-17, cumulative = -3.3423466e-16
ExecutionTime = 28.96 s  ClockTime = 29 s

Time = 16

smoothSolver:  Solving for Ux, Initial residual = 0.00878952517, Final residual = 0.000722867022, No Iterations 8
smoothSolver:  Solving for Uy, Initial residual = 0.00879753183, Final residual = 0.000725112775, No Iterations 8
smoothSolver:  Solving for Uz, Initial residual = 0.103382439, Final residual = 0.00852919089, No Iterations 3
GAMG:  Solving for p, Initial residual = 0.0221665756, Final residual = 0.00186908718, No Iterations 2
time step continuity errors : sum local = 0.0760342894, global = -5.18639603e-17, cumulative = -3.8609862e-16
ExecutionTime = 30.68 s  ClockTime = 31 s

Time = 17

smoothSolver:  Solving for Ux, Initial residual = 0.00823669534, Final residual = 0.0007851639, No Iterations 7
smoothSolver:  Solving for Uy, Initial residual = 0.00824276599, Final residual = 0.000787220607, No Iterations 7
smoothSolver:  Solving for Uz, Initial residual = 0.101783227, Final residual = 0.00873114486, No Iterations 3
GAMG:  Solving for p, Initial residual = 0.0203888639, Final residual = 0.00154426972, No Iterations 2
time step continuity errors : sum local = 0.0645562165, global = -4.23997217e-17, cumulative = -4.28498342e-16
ExecutionTime = 32.18 s  ClockTime = 32 s

Time = 18

smoothSolver:  Solving for Ux, Initial residual = 0.00773764614, Final residual = 0.000692164079, No Iterations 7
smoothSolver:  Solving for Uy, Initial residual = 0.00774442978, Final residual = 0.00069404214, No Iterations 7
smoothSolver:  Solving for Uz, Initial residual = 0.0984804296, Final residual = 0.00883602012, No Iterations 3
GAMG:  Solving for p, Initial residual = 0.0190336895, Final residual = 0.00135601213, No Iterations 2
time step continuity errors : sum local = 0.0581525717, global = -4.17042692e-17, cumulative = -4.70202611e-16
ExecutionTime = 33.65 s  ClockTime = 34 s

Time = 19

smoothSolver:  Solving for Ux, Initial residual = 0.00739902941, Final residual = 0.000632124952, No Iterations 7
smoothSolver:  Solving for Uy, Initial residual = 0.00740847013, Final residual = 0.000633682699, No Iterations 7
smoothSolver:  Solving for Uz, Initial residual = 0.0972973033, Final residual = 0.0090505588, No Iterations 3
GAMG:  Solving for p, Initial residual = 0.017943558, Final residual = 0.00120097505, No Iterations 2
time step continuity errors : sum local = 0.0527483803, global = -3.51666803e-17, cumulative = -5.05369291e-16
ExecutionTime = 35.17 s  ClockTime = 35 s

Time = 20

smoothSolver:  Solving for Ux, Initial residual = 0.00717988818, Final residual = 0.00060932991, No Iterations 7
smoothSolver:  Solving for Uy, Initial residual = 0.00719455614, Final residual = 0.000611182131, No Iterations 7
smoothSolver:  Solving for Uz, Initial residual = 0.0971099864, Final residual = 0.00935271956, No Iterations 3
GAMG:  Solving for p, Initial residual = 0.0170977202, Final residual = 0.00106723095, No Iterations 2
time step continuity errors : sum local = 0.0479325768, global = -4.49016207e-17, cumulative = -5.50270912e-16
ExecutionTime = 37.18 s  ClockTime = 37 s

Time = 21

smoothSolver:  Solving for Ux, Initial residual = 0.00707732782, Final residual = 0.000610357644, No Iterations 7
smoothSolver:  Solving for Uy, Initial residual = 0.00709983462, Final residual = 0.00061375712, No Iterations 7
smoothSolver:  Solving for Uz, Initial residual = 0.0974174652, Final residual = 0.00971447193, No Iterations 3
GAMG:  Solving for p, Initial residual = 0.0165000007, Final residual = 0.000957003239, No Iterations 2
time step continuity errors : sum local = 0.0438915241, global = 3.35754e-18, cumulative = -5.46913372e-16
ExecutionTime = 39.79 s  ClockTime = 40 s

Time = 22

smoothSolver:  Solving for Ux, Initial residual = 0.00708047907, Final residual = 0.000628238687, No Iterations 7
smoothSolver:  Solving for Uy, Initial residual = 0.00711221537, Final residual = 0.00063335467, No Iterations 7
smoothSolver:  Solving for Uz, Initial residual = 0.0979418579, Final residual = 0.00726957214, No Iterations 4
GAMG:  Solving for p, Initial residual = 0.0161849036, Final residual = 0.000884630759, No Iterations 2
time step continuity errors : sum local = 0.0413787041, global = -3.51467265e-17, cumulative = -5.82060099e-16
ExecutionTime = 41.91 s  ClockTime = 42 s

Time = 23

smoothSolver:  Solving for Ux, Initial residual = 0.00718651161, Final residual = 0.00065519854, No Iterations 7
smoothSolver:  Solving for Uy, Initial residual = 0.00722888963, Final residual = 0.000661849851, No Iterations 7
smoothSolver:  Solving for Uz, Initial residual = 0.0979274008, Final residual = 0.00722295965, No Iterations 4
GAMG:  Solving for p, Initial residual = 0.0161083103, Final residual = 0.000866627208, No Iterations 2
time step continuity errors : sum local = 0.0412953231, global = -5.50892192e-19, cumulative = -5.82610991e-16
ExecutionTime = 43.61 s  ClockTime = 44 s

Time = 24

smoothSolver:  Solving for Ux, Initial residual = 0.00738244967, Final residual = 0.000686760033, No Iterations 7
smoothSolver:  Solving for Uy, Initial residual = 0.00743567113, Final residual = 0.000695525754, No Iterations 7
smoothSolver:  Solving for Uz, Initial residual = 0.0977884145, Final residual = 0.00728101029, No Iterations 4
GAMG:  Solving for p, Initial residual = 0.0162653163, Final residual = 0.000900386478, No Iterations 2
time step continuity errors : sum local = 0.0436653735, global = -1.39128011e-17, cumulative = -5.96523792e-16
ExecutionTime = 45.16 s  ClockTime = 45 s

Time = 25

smoothSolver:  Solving for Ux, Initial residual = 0.00765432237, Final residual = 0.000720766619, No Iterations 7
smoothSolver:  Solving for Uy, Initial residual = 0.00771905569, Final residual = 0.000732193351, No Iterations 7
smoothSolver:  Solving for Uz, Initial residual = 0.0974170181, Final residual = 0.00740553389, No Iterations 4
GAMG:  Solving for p, Initial residual = 0.0166364986, Final residual = 0.000970305139, No Iterations 2
time step continuity errors : sum local = 0.0478577056, global = -1.62648548e-17, cumulative = -6.12788647e-16
ExecutionTime = 46.67 s  ClockTime = 47 s

Time = 26

smoothSolver:  Solving for Ux, Initial residual = 0.00799225993, Final residual = 0.00075636375, No Iterations 7
smoothSolver:  Solving for Uy, Initial residual = 0.00806765512, Final residual = 0.000769655109, No Iterations 7
smoothSolver:  Solving for Uz, Initial residual = 0.0967092432, Final residual = 0.00755386901, No Iterations 4
GAMG:  Solving for p, Initial residual = 0.0171961217, Final residual = 0.00105984451, No Iterations 2
time step continuity errors : sum local = 0.0531424531, global = -2.06806436e-17, cumulative = -6.3346929e-16
ExecutionTime = 48.15 s  ClockTime = 48 s

Time = 27

smoothSolver:  Solving for Ux, Initial residual = 0.00836641808, Final residual = 0.000789831085, No Iterations 7
smoothSolver:  Solving for Uy, Initial residual = 0.0084497065, Final residual = 0.000803841627, No Iterations 7
smoothSolver:  Solving for Uz, Initial residual = 0.0955950891, Final residual = 0.00769562492, No Iterations 4
GAMG:  Solving for p, Initial residual = 0.0178998155, Final residual = 0.00115526673, No Iterations 2
time step continuity errors : sum local = 0.0588758495, global = -3.59605065e-17, cumulative = -6.69429797e-16
ExecutionTime = 49.68 s  ClockTime = 50 s

Time = 28

smoothSolver:  Solving for Ux, Initial residual = 0.00875302801, Final residual = 0.000816368265, No Iterations 7
smoothSolver:  Solving for Uy, Initial residual = 0.00883703338, Final residual = 0.00083046744, No Iterations 7
smoothSolver:  Solving for Uz, Initial residual = 0.0938870275, Final residual = 0.00778964282, No Iterations 4
GAMG:  Solving for p, Initial residual = 0.0186787501, Final residual = 0.0012446755, No Iterations 2
time step continuity errors : sum local = 0.0644689247, global = 3.10306632e-17, cumulative = -6.38399133e-16
ExecutionTime = 51.18 s  ClockTime = 51 s

Time = 29

smoothSolver:  Solving for Ux, Initial residual = 0.00912361443, Final residual = 0.000834262789, No Iterations 7
smoothSolver:  Solving for Uy, Initial residual = 0.00920245993, Final residual = 0.000847904085, No Iterations 7
smoothSolver:  Solving for Uz, Initial residual = 0.091539769, Final residual = 0.00781581197, No Iterations 4
GAMG:  Solving for p, Initial residual = 0.0194726024, Final residual = 0.00131671985, No Iterations 2
time step continuity errors : sum local = 0.0693270307, global = -1.43360518e-17, cumulative = -6.52735185e-16
ExecutionTime = 52.73 s  ClockTime = 53 s

Time = 30

smoothSolver:  Solving for Ux, Initial residual = 0.00944930006, Final residual = 0.000844890114, No Iterations 7
smoothSolver:  Solving for Uy, Initial residual = 0.00951634128, Final residual = 0.000857075143, No Iterations 7
smoothSolver:  Solving for Uz, Initial residual = 0.0885603597, Final residual = 0.00777084587, No Iterations 4
GAMG:  Solving for p, Initial residual = 0.0201940585, Final residual = 0.0013626885, No Iterations 2
time step continuity errors : sum local = 0.0729612786, global = -2.98477032e-17, cumulative = -6.82582888e-16
ExecutionTime = 54.23 s  ClockTime = 55 s

Time = 31

smoothSolver:  Solving for Ux, Initial residual = 0.00971333132, Final residual = 0.000850443351, No Iterations 7
smoothSolver:  Solving for Uy, Initial residual = 0.00976327212, Final residual = 0.000860190314, No Iterations 7
smoothSolver:  Solving for Uz, Initial residual = 0.0851524913, Final residual = 0.00766090091, No Iterations 4
GAMG:  Solving for p, Initial residual = 0.0207451986, Final residual = 0.00138307672, No Iterations 2
time step continuity errors : sum local = 0.0753354424, global = 3.99182301e-18, cumulative = -6.78591065e-16
ExecutionTime = 55.78 s  ClockTime = 56 s

Time = 32

smoothSolver:  Solving for Ux, Initial residual = 0.0099086374, Final residual = 0.000854199068, No Iterations 7
smoothSolver:  Solving for Uy, Initial residual = 0.00993440227, Final residual = 0.000861973195, No Iterations 7
smoothSolver:  Solving for Uz, Initial residual = 0.0813281558, Final residual = 0.00745411915, No Iterations 4
GAMG:  Solving for p, Initial residual = 0.0210391724, Final residual = 0.00138487114, No Iterations 2
time step continuity errors : sum local = 0.0767601985, global = 2.11914887e-17, cumulative = -6.57399577e-16
ExecutionTime = 57.29 s  ClockTime = 58 s

Time = 33

smoothSolver:  Solving for Ux, Initial residual = 0.0100212383, Final residual = 0.000859533201, No Iterations 7
smoothSolver:  Solving for Uy, Initial residual = 0.0100232225, Final residual = 0.000865089878, No Iterations 7
smoothSolver:  Solving for Uz, Initial residual = 0.0774097509, Final residual = 0.00716180745, No Iterations 4
GAMG:  Solving for p, Initial residual = 0.0210584013, Final residual = 0.00137088946, No Iterations 2
time step continuity errors : sum local = 0.0773201507, global = -4.46685938e-18, cumulative = -6.61866436e-16
ExecutionTime = 58.87 s  ClockTime = 59 s

Time = 34

smoothSolver:  Solving for Ux, Initial residual = 0.0100617193, Final residual = 0.000866215755, No Iterations 7
smoothSolver:  Solving for Uy, Initial residual = 0.0100427751, Final residual = 0.000869687616, No Iterations 7
smoothSolver:  Solving for Uz, Initial residual = 0.0735084267, Final residual = 0.00680933014, No Iterations 4
GAMG:  Solving for p, Initial residual = 0.0208343439, Final residual = 0.00134190139, No Iterations 2
time step continuity errors : sum local = 0.076993588, global = -3.00911604e-17, cumulative = -6.91957597e-16
ExecutionTime = 60.38 s  ClockTime = 61 s

Time = 35

smoothSolver:  Solving for Ux, Initial residual = 0.0100547236, Final residual = 0.000872625392, No Iterations 7
smoothSolver:  Solving for Uy, Initial residual = 0.0100148894, Final residual = 0.000872633857, No Iterations 7
smoothSolver:  Solving for Uz, Initial residual = 0.0697677945, Final residual = 0.00645729487, No Iterations 4
GAMG:  Solving for p, Initial residual = 0.0204194858, Final residual = 0.00130066184, No Iterations 2
time step continuity errors : sum local = 0.0758777428, global = -2.76640533e-17, cumulative = -7.1962165e-16
ExecutionTime = 61.93 s  ClockTime = 62 s

Time = 36

smoothSolver:  Solving for Ux, Initial residual = 0.0100357942, Final residual = 0.000876379565, No Iterations 7
smoothSolver:  Solving for Uy, Initial residual = 0.00996919185, Final residual = 0.000871111174, No Iterations 7
smoothSolver:  Solving for Uz, Initial residual = 0.0664491716, Final residual = 0.00615671897, No Iterations 4
GAMG:  Solving for p, Initial residual = 0.0199074939, Final residual = 0.00125533273, No Iterations 2
time step continuity errors : sum local = 0.0744065418, global = -1.29194283e-17, cumulative = -7.32541078e-16
ExecutionTime = 63.45 s  ClockTime = 64 s

Time = 37

smoothSolver:  Solving for Ux, Initial residual = 0.0100261263, Final residual = 0.000875262238, No Iterations 7
smoothSolver:  Solving for Uy, Initial residual = 0.00992608683, Final residual = 0.000863414016, No Iterations 7
smoothSolver:  Solving for Uz, Initial residual = 0.0637246562, Final residual = 0.0059101313, No Iterations 4
GAMG:  Solving for p, Initial residual = 0.0194303863, Final residual = 0.00121562836, No Iterations 2
time step continuity errors : sum local = 0.07314384, global = -8.29184843e-18, cumulative = -7.40832927e-16
ExecutionTime = 65.03 s  ClockTime = 65 s

Time = 38

smoothSolver:  Solving for Ux, Initial residual = 0.0100265763, Final residual = 0.000869858911, No Iterations 7
smoothSolver:  Solving for Uy, Initial residual = 0.00989277328, Final residual = 0.00084928064, No Iterations 7
smoothSolver:  Solving for Uz, Initial residual = 0.0616774096, Final residual = 0.00573478023, No Iterations 4
GAMG:  Solving for p, Initial residual = 0.0190937887, Final residual = 0.001189168, No Iterations 2
time step continuity errors : sum local = 0.0725716635, global = -3.75242107e-18, cumulative = -7.44585348e-16
ExecutionTime = 66.56 s  ClockTime = 67 s

Time = 39

smoothSolver:  Solving for Ux, Initial residual = 0.0100449737, Final residual = 0.000858878597, No Iterations 7
smoothSolver:  Solving for Uy, Initial residual = 0.00987985338, Final residual = 0.000829871795, No Iterations 7
smoothSolver:  Solving for Uz, Initial residual = 0.0602059898, Final residual = 0.00563206953, No Iterations 4
GAMG:  Solving for p, Initial residual = 0.0189451499, Final residual = 0.00117693733, No Iterations 2
time step continuity errors : sum local = 0.0727915246, global = -2.21417358e-18, cumulative = -7.46799521e-16
ExecutionTime = 68.59 s  ClockTime = 69 s

Time = 40

smoothSolver:  Solving for Ux, Initial residual = 0.0100814077, Final residual = 0.000842544763, No Iterations 7
smoothSolver:  Solving for Uy, Initial residual = 0.00987884281, Final residual = 0.000806156187, No Iterations 7
smoothSolver:  Solving for Uz, Initial residual = 0.0591752727, Final residual = 0.00556822102, No Iterations 4
GAMG:  Solving for p, Initial residual = 0.0189240408, Final residual = 0.00117741297, No Iterations 2
time step continuity errors : sum local = 0.0737497325, global = -1.77714361e-17, cumulative = -7.64570957e-16
ExecutionTime = 71.12 s  ClockTime = 72 s

Time = 41

smoothSolver:  Solving for Ux, Initial residual = 0.0100956088, Final residual = 0.000821983777, No Iterations 7
smoothSolver:  Solving for Uy, Initial residual = 0.00986136456, Final residual = 0.000780309263, No Iterations 7
smoothSolver:  Solving for Uz, Initial residual = 0.0581611995, Final residual = 0.00552552689, No Iterations 4
GAMG:  Solving for p, Initial residual = 0.0189469221, Final residual = 0.00117939261, No Iterations 2
time step continuity errors : sum local = 0.0747738957, global = -2.12687747e-17, cumulative = -7.85839732e-16
ExecutionTime = 73.32 s  ClockTime = 74 s

Time = 42

smoothSolver:  Solving for Ux, Initial residual = 0.0100379118, Final residual = 0.000800717683, No Iterations 7
smoothSolver:  Solving for Uy, Initial residual = 0.00979560314, Final residual = 0.000756546213, No Iterations 7
smoothSolver:  Solving for Uz, Initial residual = 0.0568616967, Final residual = 0.00547807979, No Iterations 4
GAMG:  Solving for p, Initial residual = 0.0189549196, Final residual = 0.0011727967, No Iterations 2
time step continuity errors : sum local = 0.0752268244, global = -6.09609374e-18, cumulative = -7.91935826e-16
ExecutionTime = 75.01 s  ClockTime = 75 s

Time = 43

smoothSolver:  Solving for Ux, Initial residual = 0.00989010439, Final residual = 0.000780168793, No Iterations 7
smoothSolver:  Solving for Uy, Initial residual = 0.00965772078, Final residual = 0.000740702119, No Iterations 7
smoothSolver:  Solving for Uz, Initial residual = 0.0553512471, Final residual = 0.00540311297, No Iterations 4
GAMG:  Solving for p, Initial residual = 0.018808586, Final residual = 0.00114461926, No Iterations 2
time step continuity errors : sum local = 0.074258268, global = 2.60705404e-17, cumulative = -7.65865285e-16
ExecutionTime = 76.59 s  ClockTime = 77 s

Time = 44

smoothSolver:  Solving for Ux, Initial residual = 0.00964833435, Final residual = 0.000759537305, No Iterations 7
smoothSolver:  Solving for Uy, Initial residual = 0.00944337237, Final residual = 0.000731865239, No Iterations 7
smoothSolver:  Solving for Uz, Initial residual = 0.0535679211, Final residual = 0.00527484102, No Iterations 4
GAMG:  Solving for p, Initial residual = 0.0184202949, Final residual = 0.00108526455, No Iterations 2
time step continuity errors : sum local = 0.0712055621, global = -4.64435921e-18, cumulative = -7.70509645e-16
ExecutionTime = 78.07 s  ClockTime = 79 s

Time = 45

smoothSolver:  Solving for Ux, Initial residual = 0.00931209797, Final residual = 0.000738974041, No Iterations 7
smoothSolver:  Solving for Uy, Initial residual = 0.00915274162, Final residual = 0.000727762089, No Iterations 7
smoothSolver:  Solving for Uz, Initial residual = 0.0515771552, Final residual = 0.00508874966, No Iterations 4
GAMG:  Solving for p, Initial residual = 0.0177568625, Final residual = 0.000999548389, No Iterations 2
time step continuity errors : sum local = 0.066304727, global = 2.87485525e-17, cumulative = -7.41761092e-16
ExecutionTime = 79.63 s  ClockTime = 80 s

Time = 46

smoothSolver:  Solving for Ux, Initial residual = 0.00891554063, Final residual = 0.000722807441, No Iterations 7
smoothSolver:  Solving for Uy, Initial residual = 0.00881399528, Final residual = 0.000726711074, No Iterations 7
smoothSolver:  Solving for Uz, Initial residual = 0.0494935067, Final residual = 0.00487139692, No Iterations 4
GAMG:  Solving for p, Initial residual = 0.0168699223, Final residual = 0.000906024334, No Iterations 2
time step continuity errors : sum local = 0.0607369002, global = -1.78501524e-17, cumulative = -7.59611244e-16
ExecutionTime = 81.15 s  ClockTime = 82 s

Time = 47

smoothSolver:  Solving for Ux, Initial residual = 0.00850222671, Final residual = 0.000711357022, No Iterations 7
smoothSolver:  Solving for Uy, Initial residual = 0.00846598534, Final residual = 0.000724682532, No Iterations 7
smoothSolver:  Solving for Uz, Initial residual = 0.0474456692, Final residual = 0.00465285099, No Iterations 4
GAMG:  Solving for p, Initial residual = 0.0158537408, Final residual = 0.0008213944, No Iterations 2
time step continuity errors : sum local = 0.0556131192, global = -8.0953803e-17, cumulative = -8.40565047e-16
ExecutionTime = 82.69 s  ClockTime = 83 s

Time = 48

smoothSolver:  Solving for Ux, Initial residual = 0.00810890508, Final residual = 0.000701030112, No Iterations 7
smoothSolver:  Solving for Uy, Initial residual = 0.00814157243, Final residual = 0.000720897419, No Iterations 7
smoothSolver:  Solving for Uz, Initial residual = 0.0455816901, Final residual = 0.00444928873, No Iterations 4
GAMG:  Solving for p, Initial residual = 0.014828633, Final residual = 0.000748596613, No Iterations 2
time step continuity errors : sum local = 0.0511537381, global = -3.06233546e-17, cumulative = -8.71188402e-16
ExecutionTime = 84.21 s  ClockTime = 85 s

Time = 49

smoothSolver:  Solving for Ux, Initial residual = 0.00775959547, Final residual = 0.000689399301, No Iterations 7
smoothSolver:  Solving for Uy, Initial residual = 0.00786190837, Final residual = 0.00071653596, No Iterations 7
smoothSolver:  Solving for Uz, Initial residual = 0.0440183473, Final residual = 0.00429737837, No Iterations 4
GAMG:  Solving for p, Initial residual = 0.0138936331, Final residual = 0.00068570268, No Iterations 2
time step continuity errors : sum local = 0.0472545327, global = -3.95816232e-17, cumulative = -9.10770025e-16
ExecutionTime = 85.79 s  ClockTime = 86 s

Time = 50

smoothSolver:  Solving for Ux, Initial residual = 0.00745763416, Final residual = 0.000676222082, No Iterations 7
smoothSolver:  Solving for Uy, Initial residual = 0.00762417257, Final residual = 0.000710861383, No Iterations 7
smoothSolver:  Solving for Uz, Initial residual = 0.0428358715, Final residual = 0.00421214938, No Iterations 4
GAMG:  Solving for p, Initial residual = 0.0131056693, Final residual = 0.000631624692, No Iterations 2
time step continuity errors : sum local = 0.0438658241, global = -7.2686513e-17, cumulative = -9.83456538e-16
ExecutionTime = 87.35 s  ClockTime = 88 s

Time = 51

smoothSolver:  Solving for Ux, Initial residual = 0.00719572525, Final residual = 0.000661235407, No Iterations 7
smoothSolver:  Solving for Uy, Initial residual = 0.00742337067, Final residual = 0.000702634301, No Iterations 7
smoothSolver:  Solving for Uz, Initial residual = 0.0419890089, Final residual = 0.00418377554, No Iterations 4
GAMG:  Solving for p, Initial residual = 0.0124688993, Final residual = 0.000589309624, No Iterations 2
time step continuity errors : sum local = 0.0412125145, global = -2.14440507e-18, cumulative = -9.85600943e-16
ExecutionTime = 89.81 s  ClockTime = 90 s

Time = 52

smoothSolver:  Solving for Ux, Initial residual = 0.00696612959, Final residual = 0.000644074788, No Iterations 7
smoothSolver:  Solving for Uy, Initial residual = 0.00724232076, Final residual = 0.000692240217, No Iterations 7
smoothSolver:  Solving for Uz, Initial residual = 0.0413348849, Final residual = 0.00301693389, No Iterations 5
GAMG:  Solving for p, Initial residual = 0.0120939135, Final residual = 0.000558720931, No Iterations 2
time step continuity errors : sum local = 0.0393140913, global = -3.00808346e-17, cumulative = -1.01568178e-15
ExecutionTime = 92.43 s  ClockTime = 93 s

Time = 53

smoothSolver:  Solving for Ux, Initial residual = 0.00675904739, Final residual = 0.000627244002, No Iterations 7
smoothSolver:  Solving for Uy, Initial residual = 0.00707454521, Final residual = 0.000682642134, No Iterations 7
smoothSolver:  Solving for Uz, Initial residual = 0.0407599887, Final residual = 0.00404130563, No Iterations 4
GAMG:  Solving for p, Initial residual = 0.0115847588, Final residual = 0.000531042952, No Iterations 2
time step continuity errors : sum local = 0.037567339, global = 5.50334044e-18, cumulative = -1.01017844e-15
ExecutionTime = 94.26 s  ClockTime = 95 s

Time = 54

smoothSolver:  Solving for Ux, Initial residual = 0.00655895155, Final residual = 0.000611286812, No Iterations 7
smoothSolver:  Solving for Uy, Initial residual = 0.00690930825, Final residual = 0.000673870835, No Iterations 7
smoothSolver:  Solving for Uz, Initial residual = 0.0399824508, Final residual = 0.00294295143, No Iterations 5
GAMG:  Solving for p, Initial residual = 0.0113764212, Final residual = 0.000518001242, No Iterations 2
time step continuity errors : sum local = 0.0368179763, global = -1.67332806e-18, cumulative = -1.01185177e-15
ExecutionTime = 95.96 s  ClockTime = 97 s

Time = 55

smoothSolver:  Solving for Ux, Initial residual = 0.00636262322, Final residual = 0.00059702704, No Iterations 7
smoothSolver:  Solving for Uy, Initial residual = 0.00673526828, Final residual = 0.000667094357, No Iterations 7
smoothSolver:  Solving for Uz, Initial residual = 0.0392457141, Final residual = 0.00285872171, No Iterations 5
GAMG:  Solving for p, Initial residual = 0.0111068473, Final residual = 0.000512284371, No Iterations 2
time step continuity errors : sum local = 0.0365784496, global = -5.07144543e-17, cumulative = -1.06256622e-15
ExecutionTime = 98.51 s  ClockTime = 99 s

Time = 56

smoothSolver:  Solving for Ux, Initial residual = 0.00617047809, Final residual = 0.000584575054, No Iterations 7
smoothSolver:  Solving for Uy, Initial residual = 0.00653809968, Final residual = 0.000509644295, No Iterations 8
smoothSolver:  Solving for Uz, Initial residual = 0.0383247003, Final residual = 0.00279173168, No Iterations 5
GAMG:  Solving for p, Initial residual = 0.0109409866, Final residual = 0.000521698409, No Iterations 2
time step continuity errors : sum local = 0.0374120583, global = -3.13344353e-17, cumulative = -1.09390066e-15
ExecutionTime = 101.17 s  ClockTime = 102 s

Time = 57

smoothSolver:  Solving for Ux, Initial residual = 0.00603801347, Final residual = 0.000582351793, No Iterations 7
smoothSolver:  Solving for Uy, Initial residual = 0.00631357496, Final residual = 0.000498512465, No Iterations 8
smoothSolver:  Solving for Uz, Initial residual = 0.0377270461, Final residual = 0.00276461102, No Iterations 5
GAMG:  Solving for p, Initial residual = 0.0106924246, Final residual = 0.000508564937, No Iterations 2
time step continuity errors : sum local = 0.0366132018, global = -2.49972216e-17, cumulative = -1.11889788e-15
ExecutionTime = 102.98 s  ClockTime = 104 s

Time = 58

smoothSolver:  Solving for Ux, Initial residual = 0.00590000412, Final residual = 0.000577681126, No Iterations 7
smoothSolver:  Solving for Uy, Initial residual = 0.00607179605, Final residual = 0.000486731275, No Iterations 8
smoothSolver:  Solving for Uz, Initial residual = 0.0368722023, Final residual = 0.00274089085, No Iterations 5
GAMG:  Solving for p, Initial residual = 0.0104371854, Final residual = 0.000488895257, No Iterations 2
time step continuity errors : sum local = 0.0353214004, global = 2.26719765e-18, cumulative = -1.11663068e-15
ExecutionTime = 104.67 s  ClockTime = 105 s

Time = 59

smoothSolver:  Solving for Ux, Initial residual = 0.00576681289, Final residual = 0.000575578749, No Iterations 7
smoothSolver:  Solving for Uy, Initial residual = 0.00583607237, Final residual = 0.000472828456, No Iterations 8
smoothSolver:  Solving for Uz, Initial residual = 0.035917697, Final residual = 0.00271714117, No Iterations 5
GAMG:  Solving for p, Initial residual = 0.0101636531, Final residual = 0.000471199707, No Iterations 2
time step continuity errors : sum local = 0.034152862, global = -3.21683086e-17, cumulative = -1.14879899e-15
ExecutionTime = 106.2 s  ClockTime = 107 s

Time = 60

smoothSolver:  Solving for Ux, Initial residual = 0.0056451968, Final residual = 0.000444893799, No Iterations 8
smoothSolver:  Solving for Uy, Initial residual = 0.005605654, Final residual = 0.000457806971, No Iterations 8
smoothSolver:  Solving for Uz, Initial residual = 0.0348815873, Final residual = 0.00269117186, No Iterations 5
GAMG:  Solving for p, Initial residual = 0.00992867536, Final residual = 0.000468445375, No Iterations 2
time step continuity errors : sum local = 0.0340576598, global = -7.78337724e-17, cumulative = -1.22663276e-15
ExecutionTime = 107.75 s  ClockTime = 108 s

Time = 61

smoothSolver:  Solving for Ux, Initial residual = 0.00550231852, Final residual = 0.000438045263, No Iterations 8
smoothSolver:  Solving for Uy, Initial residual = 0.00541691383, Final residual = 0.000446408702, No Iterations 8
smoothSolver:  Solving for Uz, Initial residual = 0.0340198009, Final residual = 0.00266966558, No Iterations 5
GAMG:  Solving for p, Initial residual = 0.00963398793, Final residual = 0.00046219521, No Iterations 2
time step continuity errors : sum local = 0.033706519, global = -4.47311064e-17, cumulative = -1.27136387e-15
ExecutionTime = 109.37 s  ClockTime = 110 s

Time = 62

smoothSolver:  Solving for Ux, Initial residual = 0.00535332439, Final residual = 0.000432526755, No Iterations 8
smoothSolver:  Solving for Uy, Initial residual = 0.00523596873, Final residual = 0.000433513285, No Iterations 8
smoothSolver:  Solving for Uz, Initial residual = 0.0330557468, Final residual = 0.00262921268, No Iterations 5
GAMG:  Solving for p, Initial residual = 0.00932871776, Final residual = 0.000453500706, No Iterations 2
time step continuity errors : sum local = 0.0331756893, global = -3.79830957e-17, cumulative = -1.30934696e-15
ExecutionTime = 110.93 s  ClockTime = 112 s

Time = 63

smoothSolver:  Solving for Ux, Initial residual = 0.00521713411, Final residual = 0.000426682688, No Iterations 8
smoothSolver:  Solving for Uy, Initial residual = 0.00506668601, Final residual = 0.000421495985, No Iterations 8
smoothSolver:  Solving for Uz, Initial residual = 0.0320920926, Final residual = 0.00256823376, No Iterations 5
GAMG:  Solving for p, Initial residual = 0.00901873228, Final residual = 0.000440298541, No Iterations 2
time step continuity errors : sum local = 0.0323131871, global = -4.51151123e-17, cumulative = -1.35446207e-15
ExecutionTime = 112.53 s  ClockTime = 113 s

Time = 64

smoothSolver:  Solving for Ux, Initial residual = 0.00508164458, Final residual = 0.0004203972, No Iterations 8
smoothSolver:  Solving for Uy, Initial residual = 0.00491480283, Final residual = 0.000409259167, No Iterations 8
smoothSolver:  Solving for Uz, Initial residual = 0.0311602314, Final residual = 0.00250788048, No Iterations 5
GAMG:  Solving for p, Initial residual = 0.00870850551, Final residual = 0.000428926644, No Iterations 2
time step continuity errors : sum local = 0.0315798007, global = -1.18037164e-17, cumulative = -1.36626579e-15
ExecutionTime = 114.58 s  ClockTime = 115 s

Time = 65

smoothSolver:  Solving for Ux, Initial residual = 0.00494542508, Final residual = 0.000413339405, No Iterations 8
smoothSolver:  Solving for Uy, Initial residual = 0.00477171003, Final residual = 0.000397211524, No Iterations 8
smoothSolver:  Solving for Uz, Initial residual = 0.0302610022, Final residual = 0.00244776781, No Iterations 5
GAMG:  Solving for p, Initial residual = 0.0084186689, Final residual = 0.00042188601, No Iterations 2
time step continuity errors : sum local = 0.0311591, global = -1.84412138e-18, cumulative = -1.36810991e-15
ExecutionTime = 117.32 s  ClockTime = 118 s

Time = 66

smoothSolver:  Solving for Ux, Initial residual = 0.00480583593, Final residual = 0.000404920583, No Iterations 8
smoothSolver:  Solving for Uy, Initial residual = 0.00462989327, Final residual = 0.000385473538, No Iterations 8
smoothSolver:  Solving for Uz, Initial residual = 0.0294325866, Final residual = 0.0023906885, No Iterations 5
GAMG:  Solving for p, Initial residual = 0.0081533639, Final residual = 0.000415654117, No Iterations 2
time step continuity errors : sum local = 0.0307899033, global = -3.28581797e-17, cumulative = -1.40096809e-15
ExecutionTime = 119.5 s  ClockTime = 120 s

Time = 67

smoothSolver:  Solving for Ux, Initial residual = 0.00466807183, Final residual = 0.000394995465, No Iterations 8
smoothSolver:  Solving for Uy, Initial residual = 0.00448856448, Final residual = 0.000374386208, No Iterations 8
smoothSolver:  Solving for Uz, Initial residual = 0.0286705402, Final residual = 0.00233507252, No Iterations 5
GAMG:  Solving for p, Initial residual = 0.00790251953, Final residual = 0.000407692983, No Iterations 2
time step continuity errors : sum local = 0.0302831551, global = -3.27187299e-18, cumulative = -1.40423996e-15
ExecutionTime = 121.29 s  ClockTime = 122 s

Time = 68

smoothSolver:  Solving for Ux, Initial residual = 0.00454057098, Final residual = 0.000384603472, No Iterations 8
smoothSolver:  Solving for Uy, Initial residual = 0.00434400916, Final residual = 0.000363017813, No Iterations 8
smoothSolver:  Solving for Uz, Initial residual = 0.0279256081, Final residual = 0.00228783291, No Iterations 5
GAMG:  Solving for p, Initial residual = 0.00766753187, Final residual = 0.000396869673, No Iterations 2
time step continuity errors : sum local = 0.0295525562, global = -2.16025647e-17, cumulative = -1.42584253e-15
ExecutionTime = 122.89 s  ClockTime = 124 s

Time = 69

smoothSolver:  Solving for Ux, Initial residual = 0.00443433839, Final residual = 0.000375521879, No Iterations 8
smoothSolver:  Solving for Uy, Initial residual = 0.00419212414, Final residual = 0.000351374279, No Iterations 8
smoothSolver:  Solving for Uz, Initial residual = 0.0271767405, Final residual = 0.00223913097, No Iterations 5
GAMG:  Solving for p, Initial residual = 0.00744337705, Final residual = 0.000380708759, No Iterations 2
time step continuity errors : sum local = 0.0284117852, global = -3.8033329e-17, cumulative = -1.46387586e-15
ExecutionTime = 124.48 s  ClockTime = 125 s

Time = 70

smoothSolver:  Solving for Ux, Initial residual = 0.00434783579, Final residual = 0.000369308603, No Iterations 8
smoothSolver:  Solving for Uy, Initial residual = 0.00404217533, Final residual = 0.000339704014, No Iterations 8
smoothSolver:  Solving for Uz, Initial residual = 0.0264213299, Final residual = 0.0021920609, No Iterations 5
GAMG:  Solving for p, Initial residual = 0.00723220479, Final residual = 0.000361174012, No Iterations 2
time step continuity errors : sum local = 0.0270193131, global = -1.36802104e-17, cumulative = -1.47755607e-15
ExecutionTime = 126.05 s  ClockTime = 127 s

Time = 71

smoothSolver:  Solving for Ux, Initial residual = 0.00427435887, Final residual = 0.000366187407, No Iterations 8
smoothSolver:  Solving for Uy, Initial residual = 0.00389905955, Final residual = 0.000327995515, No Iterations 8
smoothSolver:  Solving for Uz, Initial residual = 0.0257219979, Final residual = 0.00214684755, No Iterations 5
GAMG:  Solving for p, Initial residual = 0.00703343337, Final residual = 0.000343743656, No Iterations 2
time step continuity errors : sum local = 0.0257822126, global = 1.14197105e-17, cumulative = -1.46613636e-15
ExecutionTime = 127.64 s  ClockTime = 128 s

Time = 72

smoothSolver:  Solving for Ux, Initial residual = 0.00419409234, Final residual = 0.000364610163, No Iterations 8
smoothSolver:  Solving for Uy, Initial residual = 0.00376413883, Final residual = 0.000316965418, No Iterations 8
smoothSolver:  Solving for Uz, Initial residual = 0.0250863836, Final residual = 0.00209757157, No Iterations 5
GAMG:  Solving for p, Initial residual = 0.0068490426, Final residual = 0.000331730468, No Iterations 2
time step continuity errors : sum local = 0.024936952, global = -3.06758205e-17, cumulative = -1.49681218e-15
ExecutionTime = 129.23 s  ClockTime = 130 s

Time = 73

smoothSolver:  Solving for Ux, Initial residual = 0.00410501396, Final residual = 0.000362329981, No Iterations 8
smoothSolver:  Solving for Uy, Initial residual = 0.00364555699, Final residual = 0.000307931535, No Iterations 8
smoothSolver:  Solving for Uz, Initial residual = 0.0245418668, Final residual = 0.00204431365, No Iterations 5
GAMG:  Solving for p, Initial residual = 0.0066673951, Final residual = 0.000323767128, No Iterations 2
time step continuity errors : sum local = 0.0243850143, global = -4.78980388e-17, cumulative = -1.54471022e-15
ExecutionTime = 130.88 s  ClockTime = 132 s

Time = 74

smoothSolver:  Solving for Ux, Initial residual = 0.00400537363, Final residual = 0.000357781864, No Iterations 8
smoothSolver:  Solving for Uy, Initial residual = 0.00354724133, Final residual = 0.000301225284, No Iterations 8
smoothSolver:  Solving for Uz, Initial residual = 0.0240490063, Final residual = 0.00198584111, No Iterations 5
GAMG:  Solving for p, Initial residual = 0.00647930398, Final residual = 0.00031433674, No Iterations 2
time step continuity errors : sum local = 0.0237151839, global = -6.48088105e-17, cumulative = -1.60951903e-15
ExecutionTime = 132.48 s  ClockTime = 133 s

Time = 75

smoothSolver:  Solving for Ux, Initial residual = 0.00389847852, Final residual = 0.000351161337, No Iterations 8
smoothSolver:  Solving for Uy, Initial residual = 0.00347060635, Final residual = 0.000296369471, No Iterations 8
smoothSolver:  Solving for Uz, Initial residual = 0.023610908, Final residual = 0.00192812289, No Iterations 5
GAMG:  Solving for p, Initial residual = 0.00628407789, Final residual = 0.00030149903, No Iterations 2
time step continuity errors : sum local = 0.0227842795, global = -3.47106733e-17, cumulative = -1.6442297e-15
ExecutionTime = 134.17 s  ClockTime = 135 s

Time = 76

smoothSolver:  Solving for Ux, Initial residual = 0.00379352554, Final residual = 0.000343519481, No Iterations 8
smoothSolver:  Solving for Uy, Initial residual = 0.00340385286, Final residual = 0.000292059476, No Iterations 8
smoothSolver:  Solving for Uz, Initial residual = 0.0231493945, Final residual = 0.00187002682, No Iterations 5
GAMG:  Solving for p, Initial residual = 0.00608598536, Final residual = 0.000287261778, No Iterations 2
time step continuity errors : sum local = 0.0217443222, global = 1.07834216e-18, cumulative = -1.64315136e-15
ExecutionTime = 135.94 s  ClockTime = 137 s

Time = 77

smoothSolver:  Solving for Ux, Initial residual = 0.00369616535, Final residual = 0.000335520614, No Iterations 8
smoothSolver:  Solving for Uy, Initial residual = 0.00333924135, Final residual = 0.000286928003, No Iterations 8
smoothSolver:  Solving for Uz, Initial residual = 0.0226304195, Final residual = 0.00182391691, No Iterations 5
GAMG:  Solving for p, Initial residual = 0.00589617627, Final residual = 0.000276587072, No Iterations 2
time step continuity errors : sum local = 0.0209703971, global = 8.56924805e-18, cumulative = -1.63458211e-15
ExecutionTime = 138.28 s  ClockTime = 139 s

Time = 78

smoothSolver:  Solving for Ux, Initial residual = 0.00360096259, Final residual = 0.000326994077, No Iterations 8
smoothSolver:  Solving for Uy, Initial residual = 0.00326883587, Final residual = 0.000279803976, No Iterations 8
smoothSolver:  Solving for Uz, Initial residual = 0.0220511451, Final residual = 0.00178673984, No Iterations 5
GAMG:  Solving for p, Initial residual = 0.00572973956, Final residual = 0.000272381318, No Iterations 2
time step continuity errors : sum local = 0.0206848131, global = -4.30181499e-17, cumulative = -1.67760026e-15
ExecutionTime = 140.99 s  ClockTime = 142 s

Time = 79

smoothSolver:  Solving for Ux, Initial residual = 0.00349803757, Final residual = 0.00031816359, No Iterations 8
smoothSolver:  Solving for Uy, Initial residual = 0.00318850041, Final residual = 0.000271209594, No Iterations 8
smoothSolver:  Solving for Uz, Initial residual = 0.0214728204, Final residual = 0.00176355535, No Iterations 5
GAMG:  Solving for p, Initial residual = 0.00559949385, Final residual = 0.000273365049, No Iterations 2
time step continuity errors : sum local = 0.0207903044, global = -3.4773187e-17, cumulative = -1.71237345e-15
ExecutionTime = 143.12 s  ClockTime = 144 s

Time = 80

smoothSolver:  Solving for Ux, Initial residual = 0.00338637887, Final residual = 0.000309470306, No Iterations 8
smoothSolver:  Solving for Uy, Initial residual = 0.00310626053, Final residual = 0.000262188482, No Iterations 8
smoothSolver:  Solving for Uz, Initial residual = 0.020912538, Final residual = 0.00174092186, No Iterations 5
GAMG:  Solving for p, Initial residual = 0.00548630594, Final residual = 0.000276416554, No Iterations 2
time step continuity errors : sum local = 0.0210500814, global = -5.21996864e-17, cumulative = -1.76457313e-15
ExecutionTime = 144.92 s  ClockTime = 146 s

Time = 81

smoothSolver:  Solving for Ux, Initial residual = 0.00326586562, Final residual = 0.000300513045, No Iterations 8
smoothSolver:  Solving for Uy, Initial residual = 0.00302542555, Final residual = 0.000253804784, No Iterations 8
smoothSolver:  Solving for Uz, Initial residual = 0.020416394, Final residual = 0.00171633539, No Iterations 5
GAMG:  Solving for p, Initial residual = 0.00537582221, Final residual = 0.000277256225, No Iterations 2
time step continuity errors : sum local = 0.0211394028, global = -3.21683086e-17, cumulative = -1.79674144e-15
ExecutionTime = 146.53 s  ClockTime = 147 s

Time = 82

smoothSolver:  Solving for Ux, Initial residual = 0.00314181446, Final residual = 0.000290229374, No Iterations 8
smoothSolver:  Solving for Uy, Initial residual = 0.00294932821, Final residual = 0.000246711919, No Iterations 8
smoothSolver:  Solving for Uz, Initial residual = 0.0199880782, Final residual = 0.00168921588, No Iterations 5
GAMG:  Solving for p, Initial residual = 0.0052629378, Final residual = 0.000272037337, No Iterations 2
time step continuity errors : sum local = 0.0207655879, global = -1.51425584e-17, cumulative = -1.811884e-15
ExecutionTime = 148.12 s  ClockTime = 149 s

Time = 83

smoothSolver:  Solving for Ux, Initial residual = 0.00301242891, Final residual = 0.000277773163, No Iterations 8
smoothSolver:  Solving for Uy, Initial residual = 0.00288613031, Final residual = 0.000240768786, No Iterations 8
smoothSolver:  Solving for Uz, Initial residual = 0.019597523, Final residual = 0.00165999659, No Iterations 5
GAMG:  Solving for p, Initial residual = 0.00514529876, Final residual = 0.000261598957, No Iterations 2
time step continuity errors : sum local = 0.0199915244, global = -6.82782592e-18, cumulative = -1.81871183e-15
ExecutionTime = 149.74 s  ClockTime = 151 s

Time = 84

smoothSolver:  Solving for Ux, Initial residual = 0.00287742601, Final residual = 0.000262820808, No Iterations 8
smoothSolver:  Solving for Uy, Initial residual = 0.00283406072, Final residual = 0.000235308563, No Iterations 8
smoothSolver:  Solving for Uz, Initial residual = 0.0191715431, Final residual = 0.00162678905, No Iterations 5
GAMG:  Solving for p, Initial residual = 0.00502391585, Final residual = 0.000249057709, No Iterations 2
time step continuity errors : sum local = 0.019053494, global = -9.488518e-19, cumulative = -1.81966068e-15
ExecutionTime = 151.38 s  ClockTime = 152 s

Time = 85

smoothSolver:  Solving for Ux, Initial residual = 0.00273808337, Final residual = 0.000246176509, No Iterations 8
smoothSolver:  Solving for Uy, Initial residual = 0.00278561499, Final residual = 0.000230443608, No Iterations 8
smoothSolver:  Solving for Uz, Initial residual = 0.0186695619, Final residual = 0.00158769484, No Iterations 5
GAMG:  Solving for p, Initial residual = 0.00489095533, Final residual = 0.000237700944, No Iterations 2
time step continuity errors : sum local = 0.0182042758, global = -3.1902072e-17, cumulative = -1.85156275e-15
ExecutionTime = 153.04 s  ClockTime = 154 s

Time = 86

smoothSolver:  Solving for Ux, Initial residual = 0.00259644533, Final residual = 0.000229812398, No Iterations 8
smoothSolver:  Solving for Uy, Initial residual = 0.00273607912, Final residual = 0.00022626702, No Iterations 8
smoothSolver:  Solving for Uz, Initial residual = 0.0180786673, Final residual = 0.00153881845, No Iterations 5
GAMG:  Solving for p, Initial residual = 0.00475910643, Final residual = 0.000230930396, No Iterations 2
time step continuity errors : sum local = 0.0177113929, global = -2.17895444e-17, cumulative = -1.8733523e-15
ExecutionTime = 155.21 s  ClockTime = 156 s

Time = 87

smoothSolver:  Solving for Ux, Initial residual = 0.00245466401, Final residual = 0.000214338849, No Iterations 8
smoothSolver:  Solving for Uy, Initial residual = 0.0026737493, Final residual = 0.000223219901, No Iterations 8
smoothSolver:  Solving for Uz, Initial residual = 0.0174532576, Final residual = 0.00148427148, No Iterations 5
GAMG:  Solving for p, Initial residual = 0.00463384661, Final residual = 0.000229088063, No Iterations 2
time step continuity errors : sum local = 0.0175920091, global = -3.82766816e-17, cumulative = -1.91162898e-15
ExecutionTime = 157.91 s  ClockTime = 159 s

Time = 88

smoothSolver:  Solving for Ux, Initial residual = 0.00231994824, Final residual = 0.000200237623, No Iterations 8
smoothSolver:  Solving for Uy, Initial residual = 0.0025994599, Final residual = 0.000221267407, No Iterations 8
smoothSolver:  Solving for Uz, Initial residual = 0.0168393299, Final residual = 0.00142552441, No Iterations 5
GAMG:  Solving for p, Initial residual = 0.00451511689, Final residual = 0.00022849836, No Iterations 2
time step continuity errors : sum local = 0.0175652195, global = -8.07947307e-17, cumulative = -1.99242371e-15
ExecutionTime = 160.04 s  ClockTime = 161 s

Time = 89

smoothSolver:  Solving for Ux, Initial residual = 0.00219367664, Final residual = 0.000187987733, No Iterations 8
smoothSolver:  Solving for Uy, Initial residual = 0.00251232356, Final residual = 0.000219380441, No Iterations 8
smoothSolver:  Solving for Uz, Initial residual = 0.0162772816, Final residual = 0.00136914431, No Iterations 5
GAMG:  Solving for p, Initial residual = 0.00438999446, Final residual = 0.000226026058, No Iterations 2
time step continuity errors : sum local = 0.017391423, global = 1.17880882e-18, cumulative = -1.9912449e-15
ExecutionTime = 161.84 s  ClockTime = 163 s

Time = 90

smoothSolver:  Solving for Ux, Initial residual = 0.00207915603, Final residual = 0.000178000366, No Iterations 8
smoothSolver:  Solving for Uy, Initial residual = 0.00241531929, Final residual = 0.000216377293, No Iterations 8
smoothSolver:  Solving for Uz, Initial residual = 0.0157739261, Final residual = 0.00131774664, No Iterations 5
GAMG:  Solving for p, Initial residual = 0.00425035271, Final residual = 0.000219415095, No Iterations 2
time step continuity errors : sum local = 0.016897291, global = -5.79659146e-17, cumulative = -2.04921081e-15
ExecutionTime = 163.41 s  ClockTime = 164 s

Time = 91

smoothSolver:  Solving for Ux, Initial residual = 0.00197706693, Final residual = 0.000170367048, No Iterations 8
smoothSolver:  Solving for Uy, Initial residual = 0.00231805458, Final residual = 0.000212114163, No Iterations 8
smoothSolver:  Solving for Uz, Initial residual = 0.0153085751, Final residual = 0.00127307425, No Iterations 5
GAMG:  Solving for p, Initial residual = 0.00410099371, Final residual = 0.000208840649, No Iterations 2
time step continuity errors : sum local = 0.0160973678, global = -5.62334228e-18, cumulative = -2.05483416e-15
ExecutionTime = 165.04 s  ClockTime = 166 s

Time = 92

smoothSolver:  Solving for Ux, Initial residual = 0.00189034973, Final residual = 0.000164794205, No Iterations 8
smoothSolver:  Solving for Uy, Initial residual = 0.00222479913, Final residual = 0.000207014954, No Iterations 8
smoothSolver:  Solving for Uz, Initial residual = 0.0148711852, Final residual = 0.00123464919, No Iterations 5
GAMG:  Solving for p, Initial residual = 0.00394391916, Final residual = 0.000197887439, No Iterations 2
time step continuity errors : sum local = 0.0152669636, global = 2.13128859e-18, cumulative = -2.05270287e-15
ExecutionTime = 166.65 s  ClockTime = 168 s

Time = 93

smoothSolver:  Solving for Ux, Initial residual = 0.00181915862, Final residual = 0.000161090514, No Iterations 8
smoothSolver:  Solving for Uy, Initial residual = 0.00213849804, Final residual = 0.000201821933, No Iterations 8
smoothSolver:  Solving for Uz, Initial residual = 0.0144325236, Final residual = 0.00120007665, No Iterations 5
GAMG:  Solving for p, Initial residual = 0.00378966007, Final residual = 0.000188449185, No Iterations 2
time step continuity errors : sum local = 0.014551655, global = -3.16380679e-17, cumulative = -2.08434094e-15
ExecutionTime = 168.34 s  ClockTime = 169 s

Time = 94

smoothSolver:  Solving for Ux, Initial residual = 0.00176324377, Final residual = 0.000158522562, No Iterations 8
smoothSolver:  Solving for Uy, Initial residual = 0.00206244992, Final residual = 0.000197689092, No Iterations 8
smoothSolver:  Solving for Uz, Initial residual = 0.0140206346, Final residual = 0.00116609904, No Iterations 5
GAMG:  Solving for p, Initial residual = 0.00364908096, Final residual = 0.000181213749, No Iterations 2
time step continuity errors : sum local = 0.0140042825, global = 1.71806363e-17, cumulative = -2.0671603e-15
ExecutionTime = 169.98 s  ClockTime = 171 s

Time = 95

smoothSolver:  Solving for Ux, Initial residual = 0.00172032019, Final residual = 0.000156620195, No Iterations 8
smoothSolver:  Solving for Uy, Initial residual = 0.00199187163, Final residual = 0.000193075998, No Iterations 8
smoothSolver:  Solving for Uz, Initial residual = 0.0136430378, Final residual = 0.00113210191, No Iterations 5
GAMG:  Solving for p, Initial residual = 0.00352779965, Final residual = 0.000174793307, No Iterations 2
time step continuity errors : sum local = 0.0135177263, global = -2.35133848e-17, cumulative = -2.09067368e-15
ExecutionTime = 171.64 s  ClockTime = 173 s

Time = 96

smoothSolver:  Solving for Ux, Initial residual = 0.00168514822, Final residual = 0.00015521056, No Iterations 8
smoothSolver:  Solving for Uy, Initial residual = 0.00192199627, Final residual = 0.000187364682, No Iterations 8
smoothSolver:  Solving for Uz, Initial residual = 0.0133034397, Final residual = 0.00109937576, No Iterations 5
GAMG:  Solving for p, Initial residual = 0.00342129108, Final residual = 0.00016825634, No Iterations 2
time step continuity errors : sum local = 0.013019922, global = -4.63915971e-17, cumulative = -2.13706528e-15
ExecutionTime = 173.31 s  ClockTime = 174 s

Time = 97

smoothSolver:  Solving for Ux, Initial residual = 0.00165597814, Final residual = 0.000154157311, No Iterations 8
smoothSolver:  Solving for Uy, Initial residual = 0.00185170475, Final residual = 0.00018068025, No Iterations 8
smoothSolver:  Solving for Uz, Initial residual = 0.0129899054, Final residual = 0.00106830187, No Iterations 5
GAMG:  Solving for p, Initial residual = 0.00332523803, Final residual = 0.000163142796, No Iterations 2
time step continuity errors : sum local = 0.0126309236, global = -5.28993251e-17, cumulative = -2.18996461e-15
ExecutionTime = 175.01 s  ClockTime = 176 s

Time = 98

smoothSolver:  Solving for Ux, Initial residual = 0.00163009989, Final residual = 0.000153082861, No Iterations 8
smoothSolver:  Solving for Uy, Initial residual = 0.00178127013, Final residual = 0.000173336312, No Iterations 8
smoothSolver:  Solving for Uz, Initial residual = 0.0126886415, Final residual = 0.00103859726, No Iterations 5
GAMG:  Solving for p, Initial residual = 0.00324011765, Final residual = 0.00016067169, No Iterations 2
time step continuity errors : sum local = 0.0124462725, global = -2.96410139e-17, cumulative = -2.21960562e-15
ExecutionTime = 176.65 s  ClockTime = 178 s

Time = 99

smoothSolver:  Solving for Ux, Initial residual = 0.00160430481, Final residual = 0.000151668827, No Iterations 8
smoothSolver:  Solving for Uy, Initial residual = 0.00170979442, Final residual = 0.000165666812, No Iterations 8
smoothSolver:  Solving for Uz, Initial residual = 0.0123963352, Final residual = 0.00101189276, No Iterations 5
GAMG:  Solving for p, Initial residual = 0.0031601099, Final residual = 0.000159691777, No Iterations 2
time step continuity errors : sum local = 0.0123772578, global = -2.48621497e-17, cumulative = -2.24446777e-15
ExecutionTime = 178.35 s  ClockTime = 179 s

Time = 100

smoothSolver:  Solving for Ux, Initial residual = 0.00157864472, Final residual = 0.000149633495, No Iterations 8
smoothSolver:  Solving for Uy, Initial residual = 0.00163716148, Final residual = 0.000157450268, No Iterations 8
smoothSolver:  Solving for Uz, Initial residual = 0.0121041771, Final residual = 0.000986932179, No Iterations 5
GAMG:  Solving for p, Initial residual = 0.00308119888, Final residual = 0.000158758313, No Iterations 2
time step continuity errors : sum local = 0.012311606, global = -3.75466239e-17, cumulative = -2.28201439e-15
ExecutionTime = 180.02 s  ClockTime = 181 s

Time = 101

smoothSolver:  Solving for Ux, Initial residual = 0.00154886466, Final residual = 0.000147086238, No Iterations 8
smoothSolver:  Solving for Uy, Initial residual = 0.00156389394, Final residual = 0.000148849309, No Iterations 8
smoothSolver:  Solving for Uz, Initial residual = 0.0118049694, Final residual = 0.000964123489, No Iterations 5
GAMG:  Solving for p, Initial residual = 0.00300251863, Final residual = 0.000157083267, No Iterations 2
time step continuity errors : sum local = 0.0121880238, global = -4.85421418e-18, cumulative = -2.28686861e-15
ExecutionTime = 181.72 s  ClockTime = 183 s

Time = 102

smoothSolver:  Solving for Ux, Initial residual = 0.00151331329, Final residual = 0.00014413616, No Iterations 8
smoothSolver:  Solving for Uy, Initial residual = 0.00149177446, Final residual = 0.00014054873, No Iterations 8
smoothSolver:  Solving for Uz, Initial residual = 0.0114924697, Final residual = 0.00094292663, No Iterations 5
GAMG:  Solving for p, Initial residual = 0.00292299273, Final residual = 0.000154342092, No Iterations 2
time step continuity errors : sum local = 0.0119811695, global = 2.21997832e-17, cumulative = -2.26466882e-15
ExecutionTime = 183.37 s  ClockTime = 185 s

Time = 103

smoothSolver:  Solving for Ux, Initial residual = 0.00147368183, Final residual = 0.000140757613, No Iterations 8
smoothSolver:  Solving for Uy, Initial residual = 0.00142266192, Final residual = 0.000133009059, No Iterations 8
smoothSolver:  Solving for Uz, Initial residual = 0.011177966, Final residual = 0.000920094765, No Iterations 5
GAMG:  Solving for p, Initial residual = 0.00284211208, Final residual = 0.000150729031, No Iterations 2
time step continuity errors : sum local = 0.0117060082, global = -7.50458051e-18, cumulative = -2.27217341e-15
ExecutionTime = 185.06 s  ClockTime = 186 s

Time = 104

smoothSolver:  Solving for Ux, Initial residual = 0.00143082565, Final residual = 0.00013681228, No Iterations 8
smoothSolver:  Solving for Uy, Initial residual = 0.00135815964, Final residual = 0.000126450077, No Iterations 8
smoothSolver:  Solving for Uz, Initial residual = 0.010854775, Final residual = 0.000895222226, No Iterations 5
GAMG:  Solving for p, Initial residual = 0.00276000162, Final residual = 0.000146254376, No Iterations 2
time step continuity errors : sum local = 0.0113632883, global = -2.62134263e-18, cumulative = -2.27479475e-15
ExecutionTime = 186.73 s  ClockTime = 188 s

Time = 105

smoothSolver:  Solving for Ux, Initial residual = 0.00138495105, Final residual = 0.000132402059, No Iterations 8
smoothSolver:  Solving for Uy, Initial residual = 0.0012992697, Final residual = 0.000120921744, No Iterations 8
smoothSolver:  Solving for Uz, Initial residual = 0.0105299257, Final residual = 0.000867925139, No Iterations 5
GAMG:  Solving for p, Initial residual = 0.00267637781, Final residual = 0.000141100111, No Iterations 2
time step continuity errors : sum local = 0.0109674259, global = -5.00016991e-17, cumulative = -2.32479645e-15
ExecutionTime = 188.43 s  ClockTime = 190 s

Time = 106

smoothSolver:  Solving for Ux, Initial residual = 0.00133794199, Final residual = 0.000127758924, No Iterations 8
smoothSolver:  Solving for Uy, Initial residual = 0.00124534432, Final residual = 0.000116216766, No Iterations 8
smoothSolver:  Solving for Uz, Initial residual = 0.010206636, Final residual = 0.000839146907, No Iterations 5
GAMG:  Solving for p, Initial residual = 0.00259202652, Final residual = 0.000135617183, No Iterations 2
time step continuity errors : sum local = 0.0105457972, global = 7.54030199e-18, cumulative = -2.31725614e-15
ExecutionTime = 190.1 s  ClockTime = 191 s

Time = 107

smoothSolver:  Solving for Ux, Initial residual = 0.00129119988, Final residual = 0.00012317642, No Iterations 8
smoothSolver:  Solving for Uy, Initial residual = 0.00119651018, Final residual = 0.000112232319, No Iterations 8
smoothSolver:  Solving for Uz, Initial residual = 0.0098820017, Final residual = 0.000810284725, No Iterations 5
GAMG:  Solving for p, Initial residual = 0.00250852278, Final residual = 0.000130134906, No Iterations 2
time step continuity errors : sum local = 0.0101237825, global = -9.47752248e-17, cumulative = -2.41203137e-15
ExecutionTime = 191.8 s  ClockTime = 193 s

Time = 108

smoothSolver:  Solving for Ux, Initial residual = 0.00124453291, Final residual = 0.000118514679, No Iterations 8
smoothSolver:  Solving for Uy, Initial residual = 0.00115282064, Final residual = 0.000108945011, No Iterations 8
smoothSolver:  Solving for Uz, Initial residual = 0.00956745209, Final residual = 0.000782150346, No Iterations 5
GAMG:  Solving for p, Initial residual = 0.00242643688, Final residual = 0.000124686091, No Iterations 2
time step continuity errors : sum local = 0.00970389748, global = -3.87047812e-18, cumulative = -2.41590185e-15
ExecutionTime = 193.46 s  ClockTime = 195 s

Time = 109

smoothSolver:  Solving for Ux, Initial residual = 0.00119893808, Final residual = 0.00011370655, No Iterations 8
smoothSolver:  Solving for Uy, Initial residual = 0.00111356888, Final residual = 0.00010604779, No Iterations 8
smoothSolver:  Solving for Uz, Initial residual = 0.00926320619, Final residual = 0.000755141459, No Iterations 5
GAMG:  Solving for p, Initial residual = 0.00234649734, Final residual = 0.000119718127, No Iterations 2
time step continuity errors : sum local = 0.00932091172, global = -3.30267404e-17, cumulative = -2.44892859e-15
ExecutionTime = 195.18 s  ClockTime = 196 s

Time = 110

smoothSolver:  Solving for Ux, Initial residual = 0.00115546359, Final residual = 0.000109050408, No Iterations 8
smoothSolver:  Solving for Uy, Initial residual = 0.00107788406, Final residual = 0.000103334934, No Iterations 8
smoothSolver:  Solving for Uz, Initial residual = 0.0089683332, Final residual = 0.000728570183, No Iterations 5
GAMG:  Solving for p, Initial residual = 0.0022703748, Final residual = 0.000115508956, No Iterations 2
time step continuity errors : sum local = 0.0089965049, global = -1.24857734e-18, cumulative = -2.45017717e-15
ExecutionTime = 196.85 s  ClockTime = 198 s

Time = 111

smoothSolver:  Solving for Ux, Initial residual = 0.0011146778, Final residual = 0.000104728319, No Iterations 8
smoothSolver:  Solving for Uy, Initial residual = 0.00104488824, Final residual = 0.000100604206, No Iterations 8
smoothSolver:  Solving for Uz, Initial residual = 0.00868109065, Final residual = 0.000703238919, No Iterations 5
GAMG:  Solving for p, Initial residual = 0.00219870383, Final residual = 0.000112009068, No Iterations 2
time step continuity errors : sum local = 0.00872689764, global = -3.1909607e-17, cumulative = -2.48208677e-15
ExecutionTime = 198.54 s  ClockTime = 200 s

Time = 112

smoothSolver:  Solving for Ux, Initial residual = 0.00107589837, Final residual = 0.000100754511, No Iterations 8
smoothSolver:  Solving for Uy, Initial residual = 0.00101388785, Final residual = 9.77056908e-05, No Iterations 8
smoothSolver:  Solving for Uz, Initial residual = 0.00840783272, Final residual = 0.000680186237, No Iterations 5
GAMG:  Solving for p, Initial residual = 0.00213077858, Final residual = 0.000108976546, No Iterations 2
time step continuity errors : sum local = 0.00849334032, global = -3.92140914e-17, cumulative = -2.52130086e-15
ExecutionTime = 200.22 s  ClockTime = 201 s

Time = 113

smoothSolver:  Solving for Ux, Initial residual = 0.00103928384, Final residual = 9.70678568e-05, No Iterations 8
smoothSolver:  Solving for Uy, Initial residual = 0.000983844514, Final residual = 9.4697531e-05, No Iterations 8
smoothSolver:  Solving for Uz, Initial residual = 0.00814715871, Final residual = 0.000659155427, No Iterations 5
GAMG:  Solving for p, Initial residual = 0.00206547754, Final residual = 0.00010598697, No Iterations 2
time step continuity errors : sum local = 0.00826282452, global = 2.14814466e-17, cumulative = -2.49981942e-15
ExecutionTime = 201.95 s  ClockTime = 203 s

Time = 114

smoothSolver:  Solving for Ux, Initial residual = 0.00100507277, Final residual = 9.37766404e-05, No Iterations 8
smoothSolver:  Solving for Uy, Initial residual = 0.000953701039, Final residual = 9.15736172e-05, No Iterations 8
smoothSolver:  Solving for Uz, Initial residual = 0.00790473107, Final residual = 0.000640280454, No Iterations 5
GAMG:  Solving for p, Initial residual = 0.0020021718, Final residual = 0.00010288395, No Iterations 2
time step continuity errors : sum local = 0.00802318836, global = -3.31093463e-18, cumulative = -2.50313035e-15
ExecutionTime = 203.62 s  ClockTime = 205 s

Time = 115

smoothSolver:  Solving for Ux, Initial residual = 0.000973207962, Final residual = 9.09821003e-05, No Iterations 8
smoothSolver:  Solving for Uy, Initial residual = 0.000923493446, Final residual = 8.82624806e-05, No Iterations 8
smoothSolver:  Solving for Uz, Initial residual = 0.00767901053, Final residual = 0.000622164224, No Iterations 5
GAMG:  Solving for p, Initial residual = 0.00194009386, Final residual = 9.96488271e-05, No Iterations 2
time step continuity errors : sum local = 0.00777296855, global = 1.10959846e-18, cumulative = -2.50202075e-15
ExecutionTime = 205.32 s  ClockTime = 207 s

Time = 116

smoothSolver:  Solving for Ux, Initial residual = 0.000945243245, Final residual = 8.86708006e-05, No Iterations 8
smoothSolver:  Solving for Uy, Initial residual = 0.000894301817, Final residual = 8.47677316e-05, No Iterations 8
smoothSolver:  Solving for Uz, Initial residual = 0.00746274999, Final residual = 0.000603962726, No Iterations 5
GAMG:  Solving for p, Initial residual = 0.00188009167, Final residual = 9.63149344e-05, No Iterations 2
time step continuity errors : sum local = 0.00751475701, global = -2.00676574e-17, cumulative = -2.52208841e-15
ExecutionTime = 207 s  ClockTime = 208 s

Time = 117

smoothSolver:  Solving for Ux, Initial residual = 0.000920801705, Final residual = 8.67097461e-05, No Iterations 8
smoothSolver:  Solving for Uy, Initial residual = 0.000866934833, Final residual = 8.11320765e-05, No Iterations 8
smoothSolver:  Solving for Uz, Initial residual = 0.00725478426, Final residual = 0.000585893075, No Iterations 5
GAMG:  Solving for p, Initial residual = 0.00182409973, Final residual = 9.28564491e-05, No Iterations 2
time step continuity errors : sum local = 0.00724652386, global = -1.03759735e-18, cumulative = -2.52312601e-15
ExecutionTime = 208.73 s  ClockTime = 210 s

Time = 118

smoothSolver:  Solving for Ux, Initial residual = 0.000898905899, Final residual = 8.5085648e-05, No Iterations 8
smoothSolver:  Solving for Uy, Initial residual = 0.000840302867, Final residual = 7.74210135e-05, No Iterations 8
smoothSolver:  Solving for Uz, Initial residual = 0.00705597454, Final residual = 0.000568115692, No Iterations 5
GAMG:  Solving for p, Initial residual = 0.00177218484, Final residual = 8.93735988e-05, No Iterations 2
time step continuity errors : sum local = 0.00697608409, global = -1.8988199e-17, cumulative = -2.54211421e-15
ExecutionTime = 210.39 s  ClockTime = 212 s

Time = 119

smoothSolver:  Solving for Ux, Initial residual = 0.000878587875, Final residual = 8.35428526e-05, No Iterations 8
smoothSolver:  Solving for Uy, Initial residual = 0.000815512802, Final residual = 7.39582547e-05, No Iterations 8
smoothSolver:  Solving for Uz, Initial residual = 0.00686923249, Final residual = 0.00055091532, No Iterations 5
GAMG:  Solving for p, Initial residual = 0.00172378064, Final residual = 8.61906451e-05, No Iterations 2
time step continuity errors : sum local = 0.00672877034, global = -2.13544679e-17, cumulative = -2.56346868e-15
ExecutionTime = 212.09 s  ClockTime = 213 s

Time = 120

smoothSolver:  Solving for Ux, Initial residual = 0.000859090487, Final residual = 8.19975475e-05, No Iterations 8
smoothSolver:  Solving for Uy, Initial residual = 0.000791650177, Final residual = 7.08134353e-05, No Iterations 8
smoothSolver:  Solving for Uz, Initial residual = 0.00669529819, Final residual = 0.000534610056, No Iterations 5
GAMG:  Solving for p, Initial residual = 0.0016785044, Final residual = 8.34024223e-05, No Iterations 2
time step continuity errors : sum local = 0.00651203702, global = -7.16969164e-18, cumulative = -2.57063837e-15
ExecutionTime = 213.78 s  ClockTime = 215 s

Time = 121

smoothSolver:  Solving for Ux, Initial residual = 0.000839260989, Final residual = 8.04027814e-05, No Iterations 8
smoothSolver:  Solving for Uy, Initial residual = 0.000768107016, Final residual = 6.79350663e-05, No Iterations 8
smoothSolver:  Solving for Uz, Initial residual = 0.00653412284, Final residual = 0.000519258815, No Iterations 5
GAMG:  Solving for p, Initial residual = 0.00163560019, Final residual = 8.08851303e-05, No Iterations 2
time step continuity errors : sum local = 0.00631628119, global = 5.35933822e-18, cumulative = -2.56527903e-15
ExecutionTime = 215.5 s  ClockTime = 217 s

Time = 122

smoothSolver:  Solving for Ux, Initial residual = 0.00081916107, Final residual = 7.87140871e-05, No Iterations 8
smoothSolver:  Solving for Uy, Initial residual = 0.0007460721, Final residual = 6.52987323e-05, No Iterations 8
smoothSolver:  Solving for Uz, Initial residual = 0.00638117265, Final residual = 0.000504971605, No Iterations 5
GAMG:  Solving for p, Initial residual = 0.00159513079, Final residual = 7.85378725e-05, No Iterations 2
time step continuity errors : sum local = 0.00613367769, global = -3.3100695e-17, cumulative = -2.59837972e-15
ExecutionTime = 217.18 s  ClockTime = 218 s

Time = 123

smoothSolver:  Solving for Ux, Initial residual = 0.000798982775, Final residual = 7.69143586e-05, No Iterations 8
smoothSolver:  Solving for Uy, Initial residual = 0.000727693416, Final residual = 6.30497254e-05, No Iterations 8
smoothSolver:  Solving for Uz, Initial residual = 0.00623408823, Final residual = 0.000491488527, No Iterations 5
GAMG:  Solving for p, Initial residual = 0.00155708559, Final residual = 7.62967348e-05, No Iterations 2
time step continuity errors : sum local = 0.00595926126, global = -3.45030422e-17, cumulative = -2.63288277e-15
ExecutionTime = 218.88 s  ClockTime = 220 s

Time = 124

smoothSolver:  Solving for Ux, Initial residual = 0.000778811428, Final residual = 7.49579673e-05, No Iterations 8
smoothSolver:  Solving for Uy, Initial residual = 0.000711892669, Final residual = 6.11633932e-05, No Iterations 8
smoothSolver:  Solving for Uz, Initial residual = 0.00609088379, Final residual = 0.000478885555, No Iterations 5
GAMG:  Solving for p, Initial residual = 0.00152168358, Final residual = 7.41999439e-05, No Iterations 2
time step continuity errors : sum local = 0.00579613036, global = -1.56870319e-17, cumulative = -2.6485698e-15
ExecutionTime = 220.57 s  ClockTime = 222 s

Time = 125

smoothSolver:  Solving for Ux, Initial residual = 0.000758479641, Final residual = 7.27680939e-05, No Iterations 8
smoothSolver:  Solving for Uy, Initial residual = 0.000698094792, Final residual = 5.96859426e-05, No Iterations 8
smoothSolver:  Solving for Uz, Initial residual = 0.00595038338, Final residual = 0.000467066118, No Iterations 5
GAMG:  Solving for p, Initial residual = 0.00148791346, Final residual = 7.2276812e-05, No Iterations 2
time step continuity errors : sum local = 0.0056470462, global = -1.27824291e-17, cumulative = -2.66135223e-15
ExecutionTime = 222.3 s  ClockTime = 224 s

Time = 126

smoothSolver:  Solving for Ux, Initial residual = 0.000737179149, Final residual = 7.03841964e-05, No Iterations 8
smoothSolver:  Solving for Uy, Initial residual = 0.000685525129, Final residual = 5.85604786e-05, No Iterations 8
smoothSolver:  Solving for Uz, Initial residual = 0.00581529855, Final residual = 0.000456260669, No Iterations 5
GAMG:  Solving for p, Initial residual = 0.00145550748, Final residual = 7.06355115e-05, No Iterations 2
time step continuity errors : sum local = 0.00551988215, global = -3.08293113e-18, cumulative = -2.66443516e-15
ExecutionTime = 223.98 s  ClockTime = 225 s

Time = 127

smoothSolver:  Solving for Ux, Initial residual = 0.000714712706, Final residual = 6.78570927e-05, No Iterations 8
smoothSolver:  Solving for Uy, Initial residual = 0.000674106286, Final residual = 5.77768727e-05, No Iterations 8
smoothSolver:  Solving for Uz, Initial residual = 0.00568504651, Final residual = 0.000446077763, No Iterations 5
GAMG:  Solving for p, Initial residual = 0.00142386222, Final residual = 6.90625703e-05, No Iterations 2
time step continuity errors : sum local = 0.00539796846, global = -2.14370738e-17, cumulative = -2.68587223e-15
ExecutionTime = 225.69 s  ClockTime = 227 s

Time = 128

smoothSolver:  Solving for Ux, Initial residual = 0.000691215973, Final residual = 6.52694673e-05, No Iterations 8
smoothSolver:  Solving for Uy, Initial residual = 0.000664035365, Final residual = 5.72639104e-05, No Iterations 8
smoothSolver:  Solving for Uz, Initial residual = 0.00556123375, Final residual = 0.000436410811, No Iterations 5
GAMG:  Solving for p, Initial residual = 0.00139263461, Final residual = 6.74596511e-05, No Iterations 2
time step continuity errors : sum local = 0.00527362183, global = -3.14625303e-17, cumulative = -2.71733476e-15
ExecutionTime = 227.36 s  ClockTime = 229 s

Time = 129

smoothSolver:  Solving for Ux, Initial residual = 0.00066750507, Final residual = 6.26191555e-05, No Iterations 8
smoothSolver:  Solving for Uy, Initial residual = 0.000655153979, Final residual = 5.68903176e-05, No Iterations 8
smoothSolver:  Solving for Uz, Initial residual = 0.00544454036, Final residual = 0.000427189565, No Iterations 5
GAMG:  Solving for p, Initial residual = 0.0013622418, Final residual = 6.59641445e-05, No Iterations 2
time step continuity errors : sum local = 0.0051575844, global = -3.77045798e-17, cumulative = -2.75503934e-15
ExecutionTime = 229.11 s  ClockTime = 230 s

Time = 130

[...]
ExecutionTime = 1048.26 s  ClockTime = 1054 s

Time = 596

smoothSolver:  Solving for Ux, Initial residual = 1.51903212e-05, Final residual = 1.42786319e-06, No Iterations 8
smoothSolver:  Solving for Uy, Initial residual = 1.51918524e-05, Final residual = 1.43243783e-06, No Iterations 8
smoothSolver:  Solving for Uz, Initial residual = 0.000123993958, Final residual = 1.23794165e-05, No Iterations 4
GAMG:  Solving for p, Initial residual = 3.30663126e-05, Final residual = 1.54192304e-06, No Iterations 2
time step continuity errors : sum local = 0.000121326225, global = -6.15731736e-17, cumulative = -1.38582657e-14
ExecutionTime = 1049.92 s  ClockTime = 1055 s

Time = 597

smoothSolver:  Solving for Ux, Initial residual = 1.51030842e-05, Final residual = 1.42179909e-06, No Iterations 8
smoothSolver:  Solving for Uy, Initial residual = 1.510269e-05, Final residual = 1.42591247e-06, No Iterations 8
smoothSolver:  Solving for Uz, Initial residual = 0.000122885728, Final residual = 9.03896521e-06, No Iterations 5
GAMG:  Solving for p, Initial residual = 3.34321749e-05, Final residual = 1.5480385e-06, No Iterations 2
time step continuity errors : sum local = 0.000121834276, global = -1.51466573e-17, cumulative = -1.38734124e-14
ExecutionTime = 1051.64 s  ClockTime = 1057 s

Time = 598

smoothSolver:  Solving for Ux, Initial residual = 1.50022159e-05, Final residual = 1.41213567e-06, No Iterations 8
smoothSolver:  Solving for Uy, Initial residual = 1.50001633e-05, Final residual = 1.41593187e-06, No Iterations 8
smoothSolver:  Solving for Uz, Initial residual = 0.000122377713, Final residual = 8.851429e-06, No Iterations 5
GAMG:  Solving for p, Initial residual = 3.32639547e-05, Final residual = 1.53938323e-06, No Iterations 2
time step continuity errors : sum local = 0.00012115785, global = -5.32681999e-17, cumulative = -1.39266806e-14
ExecutionTime = 1053.27 s  ClockTime = 1059 s

Time = 599

smoothSolver:  Solving for Ux, Initial residual = 1.48934729e-05, Final residual = 1.40153104e-06, No Iterations 8
smoothSolver:  Solving for Uy, Initial residual = 1.48907526e-05, Final residual = 1.40512666e-06, No Iterations 8
smoothSolver:  Solving for Uz, Initial residual = 0.000121602694, Final residual = 8.70339853e-06, No Iterations 5
GAMG:  Solving for p, Initial residual = 3.2994279e-05, Final residual = 1.52661846e-06, No Iterations 2
time step continuity errors : sum local = 0.000120153396, global = -6.31902507e-17, cumulative = -1.39898708e-14
ExecutionTime = 1054.97 s  ClockTime = 1060 s

Time = 600

smoothSolver:  Solving for Ux, Initial residual = 1.47870671e-05, Final residual = 1.39132458e-06, No Iterations 8
smoothSolver:  Solving for Uy, Initial residual = 1.47845227e-05, Final residual = 1.3948318e-06, No Iterations 8
smoothSolver:  Solving for Uz, Initial residual = 0.000120642826, Final residual = 8.59587429e-06, No Iterations 5
GAMG:  Solving for p, Initial residual = 3.27237346e-05, Final residual = 1.51415268e-06, No Iterations 2
time step continuity errors : sum local = 0.000119171953, global = -3.73216815e-17, cumulative = -1.40271925e-14
ExecutionTime = 1056.66 s  ClockTime = 1062 s

Time = 601

smoothSolver:  Solving for Ux, Initial residual = 1.46843145e-05, Final residual = 1.38150935e-06, No Iterations 8
smoothSolver:  Solving for Uy, Initial residual = 1.46824133e-05, Final residual = 1.38500867e-06, No Iterations 8
smoothSolver:  Solving for Uz, Initial residual = 0.000119670782, Final residual = 1.19566369e-05, No Iterations 4
GAMG:  Solving for p, Initial residual = 3.19856525e-05, Final residual = 1.49561013e-06, No Iterations 2
time step continuity errors : sum local = 0.000117714317, global = -2.26032022e-17, cumulative = -1.40497957e-14
ExecutionTime = 1058.33 s  ClockTime = 1064 s

Time = 602

smoothSolver:  Solving for Ux, Initial residual = 1.45964303e-05, Final residual = 1.37360587e-06, No Iterations 8
smoothSolver:  Solving for Uy, Initial residual = 1.45956916e-05, Final residual = 1.37710463e-06, No Iterations 8
smoothSolver:  Solving for Uz, Initial residual = 0.000118870586, Final residual = 8.73776383e-06, No Iterations 5
GAMG:  Solving for p, Initial residual = 3.23213627e-05, Final residual = 1.49538786e-06, No Iterations 2
time step continuity errors : sum local = 0.00011769467, global = 4.83080691e-18, cumulative = -1.40449649e-14
ExecutionTime = 1060.01 s  ClockTime = 1065 s

Time = 603

smoothSolver:  Solving for Ux, Initial residual = 1.44919843e-05, Final residual = 1.36333409e-06, No Iterations 8
smoothSolver:  Solving for Uy, Initial residual = 1.44915451e-05, Final residual = 1.36693876e-06, No Iterations 8
smoothSolver:  Solving for Uz, Initial residual = 0.000118302213, Final residual = 8.55103324e-06, No Iterations 5
GAMG:  Solving for p, Initial residual = 3.21519805e-05, Final residual = 1.4859895e-06, No Iterations 2
time step continuity errors : sum local = 0.000116955707, global = -3.15955876e-17, cumulative = -1.40765605e-14
ExecutionTime = 1061.72 s  ClockTime = 1067 s

Time = 604

smoothSolver:  Solving for Ux, Initial residual = 1.43852899e-05, Final residual = 1.35281261e-06, No Iterations 8
smoothSolver:  Solving for Uy, Initial residual = 1.43853806e-05, Final residual = 1.35650524e-06, No Iterations 8
smoothSolver:  Solving for Uz, Initial residual = 0.000117508056, Final residual = 8.40427909e-06, No Iterations 5
GAMG:  Solving for p, Initial residual = 3.18836468e-05, Final residual = 1.47325126e-06, No Iterations 2
time step continuity errors : sum local = 0.000115955102, global = -7.77686958e-18, cumulative = -1.40843374e-14
ExecutionTime = 1063.37 s  ClockTime = 1069 s

Time = 605

smoothSolver:  Solving for Ux, Initial residual = 1.42817305e-05, Final residual = 1.34285283e-06, No Iterations 8
smoothSolver:  Solving for Uy, Initial residual = 1.42826494e-05, Final residual = 1.34663074e-06, No Iterations 8
smoothSolver:  Solving for Uz, Initial residual = 0.00011655099, Final residual = 1.16541144e-05, No Iterations 4
GAMG:  Solving for p, Initial residual = 3.11438092e-05, Final residual = 1.4541397e-06, No Iterations 2
time step continuity errors : sum local = 0.000114454683, global = -6.17758598e-17, cumulative = -1.41461132e-14
ExecutionTime = 1065.08 s  ClockTime = 1070 s

Time = 606

smoothSolver:  Solving for Ux, Initial residual = 1.41949548e-05, Final residual = 1.3350533e-06, No Iterations 8
smoothSolver:  Solving for Uy, Initial residual = 1.41969123e-05, Final residual = 1.33885672e-06, No Iterations 8
smoothSolver:  Solving for Uz, Initial residual = 0.000115704023, Final residual = 8.50455036e-06, No Iterations 5
GAMG:  Solving for p, Initial residual = 3.14556093e-05, Final residual = 1.45341943e-06, No Iterations 2
time step continuity errors : sum local = 0.000114397277, global = -5.79128033e-17, cumulative = -1.4204026e-14
ExecutionTime = 1066.75 s  ClockTime = 1072 s

Time = 607

smoothSolver:  Solving for Ux, Initial residual = 1.40929912e-05, Final residual = 1.32509261e-06, No Iterations 8
smoothSolver:  Solving for Uy, Initial residual = 1.40951027e-05, Final residual = 1.32900592e-06, No Iterations 8
smoothSolver:  Solving for Uz, Initial residual = 0.000115100684, Final residual = 8.31695265e-06, No Iterations 5
GAMG:  Solving for p, Initial residual = 3.12813692e-05, Final residual = 1.44411717e-06, No Iterations 2
time step continuity errors : sum local = 0.000113666787, global = 2.25541986e-17, cumulative = -1.41814718e-14
ExecutionTime = 1068.43 s  ClockTime = 1074 s

Time = 608

smoothSolver:  Solving for Ux, Initial residual = 1.39893751e-05, Final residual = 1.31495867e-06, No Iterations 8
smoothSolver:  Solving for Uy, Initial residual = 1.39917677e-05, Final residual = 1.31895541e-06, No Iterations 8
smoothSolver:  Solving for Uz, Initial residual = 0.000114299758, Final residual = 8.17148156e-06, No Iterations 5
GAMG:  Solving for p, Initial residual = 3.101527e-05, Final residual = 1.43176977e-06, No Iterations 2
time step continuity errors : sum local = 0.000112697518, global = -3.41274347e-17, cumulative = -1.42155993e-14
ExecutionTime = 1070.12 s  ClockTime = 1076 s

Time = 609

smoothSolver:  Solving for Ux, Initial residual = 1.38888769e-05, Final residual = 1.30538184e-06, No Iterations 8
smoothSolver:  Solving for Uy, Initial residual = 1.3891896e-05, Final residual = 1.30945502e-06, No Iterations 8
smoothSolver:  Solving for Uz, Initial residual = 0.000113354937, Final residual = 1.13301205e-05, No Iterations 4
GAMG:  Solving for p, Initial residual = 3.02937152e-05, Final residual = 1.41329673e-06, No Iterations 2
time step continuity errors : sum local = 0.000111247649, global = -4.38125516e-17, cumulative = -1.42594118e-14
ExecutionTime = 1071.81 s  ClockTime = 1077 s

Time = 610

smoothSolver:  Solving for Ux, Initial residual = 1.38045002e-05, Final residual = 1.29787233e-06, No Iterations 8
smoothSolver:  Solving for Uy, Initial residual = 1.38085938e-05, Final residual = 1.30196208e-06, No Iterations 8
smoothSolver:  Solving for Uz, Initial residual = 0.000112525148, Final residual = 8.26749513e-06, No Iterations 5
GAMG:  Solving for p, Initial residual = 3.05950212e-05, Final residual = 1.41269928e-06, No Iterations 2
time step continuity errors : sum local = 0.000111200241, global = 7.12781309e-18, cumulative = -1.4252284e-14
ExecutionTime = 1073.48 s  ClockTime = 1079 s

Time = 611

smoothSolver:  Solving for Ux, Initial residual = 1.37052875e-05, Final residual = 1.28823913e-06, No Iterations 8
smoothSolver:  Solving for Uy, Initial residual = 1.37095745e-05, Final residual = 1.29242547e-06, No Iterations 8
smoothSolver:  Solving for Uz, Initial residual = 0.000111935357, Final residual = 8.0851485e-06, No Iterations 5
GAMG:  Solving for p, Initial residual = 3.04247147e-05, Final residual = 1.40372604e-06, No Iterations 2
time step continuity errors : sum local = 0.000110495789, global = -2.06685126e-17, cumulative = -1.42729525e-14
ExecutionTime = 1075.15 s  ClockTime = 1081 s

Time = 612

smoothSolver:  Solving for Ux, Initial residual = 1.36043833e-05, Final residual = 1.27840473e-06, No Iterations 8
smoothSolver:  Solving for Uy, Initial residual = 1.3608946e-05, Final residual = 1.28266142e-06, No Iterations 8
smoothSolver:  Solving for Uz, Initial residual = 0.000111155107, Final residual = 7.94378741e-06, No Iterations 5
GAMG:  Solving for p, Initial residual = 3.01653888e-05, Final residual = 1.39176732e-06, No Iterations 2
time step continuity errors : sum local = 0.000109557137, global = -2.45135514e-17, cumulative = -1.42974661e-14
ExecutionTime = 1076.83 s  ClockTime = 1082 s

Time = 613

smoothSolver:  Solving for Ux, Initial residual = 1.35064438e-05, Final residual = 1.26908833e-06, No Iterations 8
smoothSolver:  Solving for Uy, Initial residual = 1.35116237e-05, Final residual = 1.27340552e-06, No Iterations 8
smoothSolver:  Solving for Uz, Initial residual = 0.000110236109, Final residual = 1.10145582e-05, No Iterations 4
GAMG:  Solving for p, Initial residual = 2.94633122e-05, Final residual = 1.37383094e-06, No Iterations 2
time step continuity errors : sum local = 0.000108149391, global = 2.52315566e-17, cumulative = -1.42722345e-14
ExecutionTime = 1078.54 s  ClockTime = 1084 s

Time = 614

smoothSolver:  Solving for Ux, Initial residual = 1.34241463e-05, Final residual = 1.26176299e-06, No Iterations 8
smoothSolver:  Solving for Uy, Initial residual = 1.3430241e-05, Final residual = 1.26607977e-06, No Iterations 8
smoothSolver:  Solving for Uz, Initial residual = 0.000109429017, Final residual = 8.03699394e-06, No Iterations 5
GAMG:  Solving for p, Initial residual = 2.97551238e-05, Final residual = 1.37326358e-06, No Iterations 2
time step continuity errors : sum local = 0.00010810434, global = -6.69496399e-17, cumulative = -1.43391842e-14
ExecutionTime = 1080.19 s  ClockTime = 1086 s

Time = 615

smoothSolver:  Solving for Ux, Initial residual = 1.33274358e-05, Final residual = 1.25236618e-06, No Iterations 8
smoothSolver:  Solving for Uy, Initial residual = 1.33335445e-05, Final residual = 1.25675384e-06, No Iterations 8
smoothSolver:  Solving for Uz, Initial residual = 0.000108853166, Final residual = 7.85962004e-06, No Iterations 5
GAMG:  Solving for p, Initial residual = 2.95886379e-05, Final residual = 1.36453807e-06, No Iterations 2
time step continuity errors : sum local = 0.000107419261, global = -5.91677645e-17, cumulative = -1.43983519e-14
ExecutionTime = 1081.89 s  ClockTime = 1087 s

Time = 616

smoothSolver:  Solving for Ux, Initial residual = 1.32290937e-05, Final residual = 1.24276938e-06, No Iterations 8
smoothSolver:  Solving for Uy, Initial residual = 1.32351991e-05, Final residual = 1.24719103e-06, No Iterations 8
smoothSolver:  Solving for Uz, Initial residual = 0.000108090141, Final residual = 7.72208969e-06, No Iterations 5
GAMG:  Solving for p, Initial residual = 2.93356074e-05, Final residual = 1.35289498e-06, No Iterations 2
time step continuity errors : sum local = 0.000106505266, global = -5.59686339e-17, cumulative = -1.44543206e-14
ExecutionTime = 1083.57 s  ClockTime = 1089 s

Time = 617

smoothSolver:  Solving for Ux, Initial residual = 1.31336041e-05, Final residual = 1.23367752e-06, No Iterations 8
smoothSolver:  Solving for Uy, Initial residual = 1.31399371e-05, Final residual = 1.23811452e-06, No Iterations 8
smoothSolver:  Solving for Uz, Initial residual = 0.000107191642, Final residual = 1.07071316e-05, No Iterations 4
GAMG:  Solving for p, Initial residual = 2.86524482e-05, Final residual = 1.33543578e-06, No Iterations 2
time step continuity errors : sum local = 0.000105134825, global = -8.78781536e-18, cumulative = -1.44631084e-14
ExecutionTime = 1085.24 s  ClockTime = 1091 s

Time = 618

smoothSolver:  Solving for Ux, Initial residual = 1.30531872e-05, Final residual = 1.22652337e-06, No Iterations 8
smoothSolver:  Solving for Uy, Initial residual = 1.30601476e-05, Final residual = 1.23091906e-06, No Iterations 8
smoothSolver:  Solving for Uz, Initial residual = 0.000106403242, Final residual = 7.8124929e-06, No Iterations 5
GAMG:  Solving for p, Initial residual = 2.89351853e-05, Final residual = 1.33487524e-06, No Iterations 2
time step continuity errors : sum local = 0.000105090178, global = -2.89984197e-17, cumulative = -1.44921068e-14
ExecutionTime = 1086.92 s  ClockTime = 1092 s

Time = 619

smoothSolver:  Solving for Ux, Initial residual = 1.29587816e-05, Final residual = 1.21735885e-06, No Iterations 8
smoothSolver:  Solving for Uy, Initial residual = 1.29654181e-05, Final residual = 1.2217805e-06, No Iterations 8
smoothSolver:  Solving for Uz, Initial residual = 0.000105839061, Final residual = 7.6398938e-06, No Iterations 5
GAMG:  Solving for p, Initial residual = 2.87725728e-05, Final residual = 1.32637624e-06, No Iterations 2
time step continuity errors : sum local = 0.000104422736, global = -7.9888961e-18, cumulative = -1.45000957e-14
ExecutionTime = 1088.61 s  ClockTime = 1094 s

Time = 620

smoothSolver:  Solving for Ux, Initial residual = 1.2862828e-05, Final residual = 1.20800753e-06, No Iterations 8
smoothSolver:  Solving for Uy, Initial residual = 1.28692113e-05, Final residual = 1.21242797e-06, No Iterations 8
smoothSolver:  Solving for Uz, Initial residual = 0.000105096575, Final residual = 7.50604747e-06, No Iterations 5
GAMG:  Solving for p, Initial residual = 2.85259266e-05, Final residual = 1.31504756e-06, No Iterations 2
time step continuity errors : sum local = 0.000103533277, global = -4.60488331e-17, cumulative = -1.45461445e-14
ExecutionTime = 1090.28 s  ClockTime = 1096 s

Time = 621

smoothSolver:  Solving for Ux, Initial residual = 1.27697178e-05, Final residual = 1.19915425e-06, No Iterations 8
smoothSolver:  Solving for Uy, Initial residual = 1.27760971e-05, Final residual = 1.20356598e-06, No Iterations 8
smoothSolver:  Solving for Uz, Initial residual = 0.000104223192, Final residual = 1.04073451e-05, No Iterations 4
GAMG:  Solving for p, Initial residual = 2.78614573e-05, Final residual = 1.29805821e-06, No Iterations 2
time step continuity errors : sum local = 0.000102199582, global = -8.17005005e-18, cumulative = -1.45543146e-14
ExecutionTime = 1091.97 s  ClockTime = 1097 s

Time = 622

smoothSolver:  Solving for Ux, Initial residual = 1.26913284e-05, Final residual = 1.19219909e-06, No Iterations 8
smoothSolver:  Solving for Uy, Initial residual = 1.26981022e-05, Final residual = 1.19655263e-06, No Iterations 8
smoothSolver:  Solving for Uz, Initial residual = 0.00010345713, Final residual = 7.59357052e-06, No Iterations 5
GAMG:  Solving for p, Initial residual = 2.81354374e-05, Final residual = 1.29751342e-06, No Iterations 2
time step continuity errors : sum local = 0.000102156069, global = -3.834761e-17, cumulative = -1.45926622e-14
ExecutionTime = 1093.65 s  ClockTime = 1099 s

Time = 623

smoothSolver:  Solving for Ux, Initial residual = 1.25993932e-05, Final residual = 1.18329933e-06, No Iterations 8
smoothSolver:  Solving for Uy, Initial residual = 1.26056723e-05, Final residual = 1.18765955e-06, No Iterations 8
smoothSolver:  Solving for Uz, Initial residual = 0.000102903616, Final residual = 7.42556672e-06, No Iterations 5
GAMG:  Solving for p, Initial residual = 2.7976964e-05, Final residual = 1.28927218e-06, No Iterations 2
time step continuity errors : sum local = 0.000101508763, global = -1.34261308e-17, cumulative = -1.46060883e-14
ExecutionTime = 1095.32 s  ClockTime = 1101 s

Time = 624

smoothSolver:  Solving for Ux, Initial residual = 1.25059692e-05, Final residual = 1.17422316e-06, No Iterations 8
smoothSolver:  Solving for Uy, Initial residual = 1.25119024e-05, Final residual = 1.17856495e-06, No Iterations 8
smoothSolver:  Solving for Uz, Initial residual = 0.000102180208, Final residual = 7.29518259e-06, No Iterations 5
GAMG:  Solving for p, Initial residual = 2.7736946e-05, Final residual = 1.27828214e-06, No Iterations 2
time step continuity errors : sum local = 0.000100645806, global = -1.57876556e-17, cumulative = -1.4621876e-14
ExecutionTime = 1097 s  ClockTime = 1103 s

Time = 625

smoothSolver:  Solving for Ux, Initial residual = 1.24152954e-05, Final residual = 1.16563184e-06, No Iterations 8
smoothSolver:  Solving for Uy, Initial residual = 1.24211554e-05, Final residual = 1.16994867e-06, No Iterations 8
smoothSolver:  Solving for Uz, Initial residual = 0.000101328034, Final residual = 1.01147642e-05, No Iterations 4
GAMG:  Solving for p, Initial residual = 2.70910092e-05, Final residual = 1.23362591e-06, No Iterations 2
time step continuity errors : sum local = 9.69454887e-05, global = -1.57034973e-18, cumulative = -1.46234463e-14
ExecutionTime = 1098.69 s  ClockTime = 1104 s

Time = 626

smoothSolver:  Solving for Ux, Initial residual = 1.23448705e-05, Final residual = 1.15876372e-06, No Iterations 8
smoothSolver:  Solving for Uy, Initial residual = 1.23461021e-05, Final residual = 1.16242021e-06, No Iterations 8
smoothSolver:  Solving for Uz, Initial residual = 0.000100727343, Final residual = 7.38283597e-06, No Iterations 5
GAMG:  Solving for p, Initial residual = 2.73474906e-05, Final residual = 1.25771922e-06, No Iterations 2
time step continuity errors : sum local = 9.89307527e-05, global = -3.25833789e-17, cumulative = -1.46560297e-14
ExecutionTime = 1100.37 s  ClockTime = 1106 s

Time = 627

smoothSolver:  Solving for Ux, Initial residual = 1.22569542e-05, Final residual = 1.15146878e-06, No Iterations 8
smoothSolver:  Solving for Uy, Initial residual = 1.22560107e-05, Final residual = 1.15483197e-06, No Iterations 8
smoothSolver:  Solving for Uz, Initial residual = 9.9997624e-05, Final residual = 7.2152982e-06, No Iterations 5
GAMG:  Solving for p, Initial residual = 2.72044756e-05, Final residual = 1.25387534e-06, No Iterations 2
time step continuity errors : sum local = 9.86490721e-05, global = -5.6519561e-18, cumulative = -1.46616817e-14
ExecutionTime = 1102.04 s  ClockTime = 1108 s


SIMPLE solution converged in 627 iterations

End

