/*---------------------------------------------------------------------------*\
  =========                 |
  \\      /  F ield         | OpenFOAM: The Open Source CFD Toolbox
   \\    /   O peration     | Website:  https://openfoam.org
    \\  /    A nd           | Version:  9
     \\/     M anipulation  |
\*---------------------------------------------------------------------------*/
Build  : 9-c8374a4890ad
Exec   : icoFoam
Date   : Feb 03 2022
Time   : 10:51:48
Host   : "endeavouros"
PID    : 120023
I/O    : uncollated
Case   : /home/ariedinger/uni/gimap/openfoam/03wiki3weeksSeries/day05/01hagenPoiseuilleFlow/laminar_pipe/case0
nProcs : 1
sigFpe : Enabling floating point exception trapping (FOAM_SIGFPE).
fileModificationChecking : Monitoring run-time modified files using timeStampMaster (fileModificationSkew 10)
allowSystemOperations : Allowing user-supplied system call operations

// * * * * * * * * * * * * * * * * * * * * * * * * * * * * * * * * * * * * * //
Create time

Create mesh for time = 0

Reading transportProperties

Reading field p

Reading field U

Reading/calculating face flux field phi


Starting time loop

--> FOAM Warning : 
    From function bool Foam::functionObjectList::read()
    in file db/functionObjects/functionObjectList/functionObjectList.C at line 853
    Caught FatalError 
--> FOAM FATAL ERROR: 
Unknown function type fieldMinMax

Valid functions are : 

58
(
CourantNo
Lambda2
MachNo
PecletNo
Q
XiReactionRate
add
age
blendingFactor
comfort
components
cylindrical
ddt
div
divide
enstrophy
fieldAverage
fieldCoordinateSystemTransform
fieldValueDelta
flowType
grad
histogram
interfaceHeight
log
mag
magSqr
multiply
nearWallFields
patchProbes
pressure
probes
processorField
psiReactionThermoMoleFractions
randomise
readFields
regionSizeDistribution
rhoReactionThermoMoleFractions
scale
sets
shearStress
streamFunction
streamlines
subtract
surfaceFieldValue
surfaceInterpolate
surfaces
totalEnthalpy
turbulenceFields
turbulenceIntensity
uniform
volFieldValue
vorticity
wallHeatFlux
wallHeatTransferCoeff
wallShearStress
writeCellCentres
writeCellVolumes
yPlus
)



    From function static Foam::autoPtr<Foam::functionObject> Foam::functionObject::New(const Foam::word&, const Foam::Time&, const Foam::dictionary&)
    in file db/functionObjects/functionObject/functionObject.C at line 101.

surfaceFieldValue inMassFlow:
    total faces  = 10
    total area   = 0.1


surfaceFieldValue outMassFlow:
    total faces  = 10
    total area   = 0.1


surfaceFieldValue outMax:
    total faces  = 10
    total area   = 0.1


surfaceFieldValue inMassFlow write:
    sum(inlet) of phi = -0.1

surfaceFieldValue outMassFlow write:
    sum(outlet) of phi = 0

surfaceFieldValue outMax write:
    max(outlet) of U = (0 0 0)
    max(outlet) of p = 0

Time = 0.05

Courant Number mean: 0.0025 max: 0.25
DILUPBiCG:  Solving for Ux, Initial residual = 1, Final residual = 7.1360744e-09, No Iterations 3
DILUPBiCG:  Solving for Uy, Initial residual = 0, Final residual = 0, No Iterations 0
GAMG:  Solving for p, Initial residual = 1, Final residual = 0.0018972977, No Iterations 4
GAMG:  Solving for p, Initial residual = 9.0177214e-06, Final residual = 3.422826e-07, No Iterations 2
time step continuity errors : sum local = 3.6007542e-07, global = -4.6384481e-08, cumulative = -4.6384481e-08
ExecutionTime = 0.12 s  ClockTime = 0 s

surfaceFieldValue inMassFlow write:
    sum(inlet) of phi = -0.1

surfaceFieldValue outMassFlow write:
    sum(outlet) of phi = 0.099999072

surfaceFieldValue outMax write:
    max(outlet) of U = (1.0190734 0.00017559812 0)
    max(outlet) of p = 0

Time = 0.1

Courant Number mean: 0.50007886 max: 0.51118723
DILUPBiCG:  Solving for Ux, Initial residual = 0.98515947, Final residual = 3.5659821e-09, No Iterations 4
DILUPBiCG:  Solving for Uy, Initial residual = 0.34876465, Final residual = 7.812128e-09, No Iterations 4
GAMG:  Solving for p, Initial residual = 0.0070273479, Final residual = 6.9414114e-05, No Iterations 3
GAMG:  Solving for p, Initial residual = 0.00039545992, Final residual = 5.7243275e-07, No Iterations 4
time step continuity errors : sum local = 8.6992641e-08, global = 3.3742577e-09, cumulative = -4.3010223e-08
ExecutionTime = 0.13 s  ClockTime = 0 s

surfaceFieldValue inMassFlow write:
    sum(inlet) of phi = -0.1

surfaceFieldValue outMassFlow write:
    sum(outlet) of phi = 0.10000007

surfaceFieldValue outMax write:
    max(outlet) of U = (1.0909425 0.0016297017 0)
    max(outlet) of p = 0

Time = 0.15

Courant Number mean: 0.50038761 max: 0.52951096
DILUPBiCG:  Solving for Ux, Initial residual = 0.76971656, Final residual = 3.5647312e-09, No Iterations 4
DILUPBiCG:  Solving for Uy, Initial residual = 0.30279404, Final residual = 7.1583051e-09, No Iterations 4
GAMG:  Solving for p, Initial residual = 0.019219567, Final residual = 0.00014063069, No Iterations 3
GAMG:  Solving for p, Initial residual = 0.00050249623, Final residual = 8.1364303e-07, No Iterations 4
time step continuity errors : sum local = 3.4502869e-08, global = 1.1978163e-09, cumulative = -4.1812407e-08
ExecutionTime = 0.13 s  ClockTime = 0 s

surfaceFieldValue inMassFlow write:
    sum(inlet) of phi = -0.1

surfaceFieldValue outMassFlow write:
    sum(outlet) of phi = 0.10000002

surfaceFieldValue outMax write:
    max(outlet) of U = (1.0706961 0.00029789702 0)
    max(outlet) of p = 0

Time = 0.2

Courant Number mean: 0.50050365 max: 0.54090044
DILUPBiCG:  Solving for Ux, Initial residual = 0.21405092, Final residual = 1.7058868e-09, No Iterations 4
DILUPBiCG:  Solving for Uy, Initial residual = 0.11749765, Final residual = 6.4814881e-09, No Iterations 4
GAMG:  Solving for p, Initial residual = 0.021551363, Final residual = 0.00015907668, No Iterations 3
GAMG:  Solving for p, Initial residual = 0.0010855076, Final residual = 1.8810461e-07, No Iterations 5
time step continuity errors : sum local = 1.1691838e-09, global = 1.1479906e-10, cumulative = -4.1697608e-08
ExecutionTime = 0.13 s  ClockTime = 0 s

surfaceFieldValue inMassFlow write:
    sum(inlet) of phi = -0.1

surfaceFieldValue outMassFlow write:
    sum(outlet) of phi = 0.1

surfaceFieldValue outMax write:
    max(outlet) of U = (1.0851601 0.00015333011 0)
    max(outlet) of p = 0

Time = 0.25

Courant Number mean: 0.50064409 max: 0.54873149
DILUPBiCG:  Solving for Ux, Initial residual = 0.073555649, Final residual = 9.6794704e-10, No Iterations 4
DILUPBiCG:  Solving for Uy, Initial residual = 0.10618959, Final residual = 3.0180353e-09, No Iterations 4
GAMG:  Solving for p, Initial residual = 0.032593331, Final residual = 0.0002242281, No Iterations 3
GAMG:  Solving for p, Initial residual = 0.00011461284, Final residual = 7.0317664e-07, No Iterations 3
time step continuity errors : sum local = 8.3861859e-09, global = -9.8538209e-10, cumulative = -4.268299e-08
ExecutionTime = 0.14 s  ClockTime = 0 s

surfaceFieldValue inMassFlow write:
    sum(inlet) of phi = -0.1

surfaceFieldValue outMassFlow write:
    sum(outlet) of phi = 0.09999998

surfaceFieldValue outMax write:
    max(outlet) of U = (1.0938049 0.00039437763 0)
    max(outlet) of p = 0

Time = 0.3

Courant Number mean: 0.50077081 max: 0.55457223
DILUPBiCG:  Solving for Ux, Initial residual = 0.066354957, Final residual = 7.8616604e-10, No Iterations 4
DILUPBiCG:  Solving for Uy, Initial residual = 0.077123597, Final residual = 3.4678437e-09, No Iterations 4
GAMG:  Solving for p, Initial residual = 0.006826519, Final residual = 5.4824662e-05, No Iterations 3
GAMG:  Solving for p, Initial residual = 6.4616289e-05, Final residual = 4.0585108e-07, No Iterations 3
time step continuity errors : sum local = 4.0915941e-09, global = 4.7740866e-10, cumulative = -4.2205581e-08
ExecutionTime = 0.14 s  ClockTime = 0 s

surfaceFieldValue inMassFlow write:
    sum(inlet) of phi = -0.1

surfaceFieldValue outMassFlow write:
    sum(outlet) of phi = 0.10000001

surfaceFieldValue outMax write:
    max(outlet) of U = (1.1038276 0.00062392102 0)
    max(outlet) of p = 0

Time = 0.35

Courant Number mean: 0.50088836 max: 0.55884525
DILUPBiCG:  Solving for Ux, Initial residual = 0.051825008, Final residual = 6.3369055e-10, No Iterations 4
DILUPBiCG:  Solving for Uy, Initial residual = 0.062552406, Final residual = 1.9473294e-09, No Iterations 4
GAMG:  Solving for p, Initial residual = 0.0057387482, Final residual = 1.0009505e-05, No Iterations 3
GAMG:  Solving for p, Initial residual = 1.0288574e-05, Final residual = 3.7481901e-07, No Iterations 2
time step continuity errors : sum local = 3.6641567e-09, global = 5.2657039e-10, cumulative = -4.1679011e-08
ExecutionTime = 0.15 s  ClockTime = 0 s

surfaceFieldValue inMassFlow write:
    sum(inlet) of phi = -0.1

surfaceFieldValue outMassFlow write:
    sum(outlet) of phi = 0.10000001

surfaceFieldValue outMax write:
    max(outlet) of U = (1.1140355 0.00081953518 0)
    max(outlet) of p = 0

Time = 0.4

Courant Number mean: 0.50099653 max: 0.56203088
DILUPBiCG:  Solving for Ux, Initial residual = 0.04405498, Final residual = 5.4505379e-10, No Iterations 4
DILUPBiCG:  Solving for Uy, Initial residual = 0.052209331, Final residual = 1.5911185e-09, No Iterations 4
GAMG:  Solving for p, Initial residual = 0.0042430977, Final residual = 1.1327025e-05, No Iterations 3
GAMG:  Solving for p, Initial residual = 1.1899385e-05, Final residual = 3.4523624e-07, No Iterations 2
time step continuity errors : sum local = 3.2090538e-09, global = 2.9099507e-10, cumulative = -4.1388016e-08
ExecutionTime = 0.15 s  ClockTime = 0 s

surfaceFieldValue inMassFlow write:
    sum(inlet) of phi = -0.1

surfaceFieldValue outMassFlow write:
    sum(outlet) of phi = 0.10000001

surfaceFieldValue outMax write:
    max(outlet) of U = (1.124446 0.00094101009 0)
    max(outlet) of p = 0

Time = 0.45

Courant Number mean: 0.50109661 max: 0.56776408
DILUPBiCG:  Solving for Ux, Initial residual = 0.037972489, Final residual = 4.6992135e-10, No Iterations 4
DILUPBiCG:  Solving for Uy, Initial residual = 0.044360168, Final residual = 1.3419559e-09, No Iterations 4
GAMG:  Solving for p, Initial residual = 0.003457222, Final residual = 9.7822171e-06, No Iterations 3
GAMG:  Solving for p, Initial residual = 1.0190631e-05, Final residual = 2.9584625e-07, No Iterations 2
time step continuity errors : sum local = 2.6367582e-09, global = 2.6973029e-10, cumulative = -4.1118285e-08
ExecutionTime = 0.15 s  ClockTime = 0 s

surfaceFieldValue inMassFlow write:
    sum(inlet) of phi = -0.1

surfaceFieldValue outMassFlow write:
    sum(outlet) of phi = 0.10000001

surfaceFieldValue outMax write:
    max(outlet) of U = (1.1348892 0.00098594359 0)
    max(outlet) of p = 0

Time = 0.5

Courant Number mean: 0.50118928 max: 0.57325272
DILUPBiCG:  Solving for Ux, Initial residual = 0.03322745, Final residual = 4.3618589e-10, No Iterations 4
DILUPBiCG:  Solving for Uy, Initial residual = 0.03832073, Final residual = 1.1717945e-09, No Iterations 4
GAMG:  Solving for p, Initial residual = 0.0027621115, Final residual = 1.0163231e-05, No Iterations 3
GAMG:  Solving for p, Initial residual = 1.0565835e-05, Final residual = 3.2576855e-07, No Iterations 2
time step continuity errors : sum local = 2.7899119e-09, global = 2.3819886e-10, cumulative = -4.0880087e-08
ExecutionTime = 0.17 s  ClockTime = 0 s

surfaceFieldValue inMassFlow write:
    sum(inlet) of phi = -0.1

surfaceFieldValue outMassFlow write:
    sum(outlet) of phi = 0.1

surfaceFieldValue outMax write:
    max(outlet) of U = (1.145281 0.00096510108 0)
    max(outlet) of p = 0

Time = 0.55

Courant Number mean: 0.5012754 max: 0.57798304
DILUPBiCG:  Solving for Ux, Initial residual = 0.029419884, Final residual = 4.0285372e-10, No Iterations 4
DILUPBiCG:  Solving for Uy, Initial residual = 0.033382467, Final residual = 1.0401295e-09, No Iterations 4
GAMG:  Solving for p, Initial residual = 0.0023321655, Final residual = 9.3545656e-06, No Iterations 3
GAMG:  Solving for p, Initial residual = 9.6947466e-06, Final residual = 3.0488066e-07, No Iterations 2
time step continuity errors : sum local = 2.5172819e-09, global = 2.0336485e-10, cumulative = -4.0676722e-08
ExecutionTime = 0.17 s  ClockTime = 0 s

surfaceFieldValue inMassFlow write:
    sum(inlet) of phi = -0.1

surfaceFieldValue outMassFlow write:
    sum(outlet) of phi = 0.1

surfaceFieldValue outMax write:
    max(outlet) of U = (1.1555465 0.00089420398 0)
    max(outlet) of p = 0

Time = 0.6

Courant Number mean: 0.50135574 max: 0.58197771
DILUPBiCG:  Solving for Ux, Initial residual = 0.026278364, Final residual = 3.7611167e-10, No Iterations 4
DILUPBiCG:  Solving for Uy, Initial residual = 0.029374046, Final residual = 9.2602648e-10, No Iterations 4
GAMG:  Solving for p, Initial residual = 0.0022947571, Final residual = 8.3938515e-06, No Iterations 3
GAMG:  Solving for p, Initial residual = 8.6766961e-06, Final residual = 2.7722718e-07, No Iterations 2
time step continuity errors : sum local = 2.2126374e-09, global = 1.8386605e-10, cumulative = -4.0492856e-08
ExecutionTime = 0.17 s  ClockTime = 0 s

surfaceFieldValue inMassFlow write:
    sum(inlet) of phi = -0.1

surfaceFieldValue outMassFlow write:
    sum(outlet) of phi = 0.1

surfaceFieldValue outMax write:
    max(outlet) of U = (1.1656293 0.00079069477 0)
    max(outlet) of p = 0

Time = 0.65

Courant Number mean: 0.5014308 max: 0.5855137
DILUPBiCG:  Solving for Ux, Initial residual = 0.023622821, Final residual = 3.6821785e-10, No Iterations 4
DILUPBiCG:  Solving for Uy, Initial residual = 0.026065173, Final residual = 8.2869325e-10, No Iterations 4
GAMG:  Solving for p, Initial residual = 0.0022150426, Final residual = 7.4493247e-06, No Iterations 3
GAMG:  Solving for p, Initial residual = 7.6804671e-06, Final residual = 2.468394e-07, No Iterations 2
time step continuity errors : sum local = 1.9097604e-09, global = 1.6995504e-10, cumulative = -4.0322901e-08
ExecutionTime = 0.18 s  ClockTime = 0 s

surfaceFieldValue inMassFlow write:
    sum(inlet) of phi = -0.1

surfaceFieldValue outMassFlow write:
    sum(outlet) of phi = 0.1

surfaceFieldValue outMax write:
    max(outlet) of U = (1.1754879 0.00067085448 0)
    max(outlet) of p = 0

Time = 0.7

Courant Number mean: 0.50150108 max: 0.58919063
DILUPBiCG:  Solving for Ux, Initial residual = 0.021351895, Final residual = 3.5657099e-10, No Iterations 4
DILUPBiCG:  Solving for Uy, Initial residual = 0.023276575, Final residual = 7.5016462e-10, No Iterations 4
GAMG:  Solving for p, Initial residual = 0.0020390312, Final residual = 6.6907968e-06, No Iterations 3
GAMG:  Solving for p, Initial residual = 6.8809606e-06, Final residual = 2.2423982e-07, No Iterations 2
time step continuity errors : sum local = 1.6866108e-09, global = 1.5934526e-10, cumulative = -4.0163555e-08
ExecutionTime = 0.18 s  ClockTime = 0 s

surfaceFieldValue inMassFlow write:
    sum(inlet) of phi = -0.1

surfaceFieldValue outMassFlow write:
    sum(outlet) of phi = 0.1

surfaceFieldValue outMax write:
    max(outlet) of U = (1.1850936 0.00054816492 0)
    max(outlet) of p = 0

Time = 0.75

Courant Number mean: 0.50156707 max: 0.59278102
DILUPBiCG:  Solving for Ux, Initial residual = 0.019395335, Final residual = 3.382004e-10, No Iterations 4
DILUPBiCG:  Solving for Uy, Initial residual = 0.020915431, Final residual = 6.7732784e-10, No Iterations 4
GAMG:  Solving for p, Initial residual = 0.0018107552, Final residual = 6.2738688e-06, No Iterations 3
GAMG:  Solving for p, Initial residual = 6.4397073e-06, Final residual = 2.1610472e-07, No Iterations 2
time step continuity errors : sum local = 1.5831163e-09, global = 1.5347349e-10, cumulative = -4.0010082e-08
ExecutionTime = 0.18 s  ClockTime = 0 s

surfaceFieldValue inMassFlow write:
    sum(inlet) of phi = -0.1

surfaceFieldValue outMassFlow write:
    sum(outlet) of phi = 0.1

surfaceFieldValue outMax write:
    max(outlet) of U = (1.194428 0.00043224059 0)
    max(outlet) of p = 0

Time = 0.8

Courant Number mean: 0.5016291 max: 0.59746055
DILUPBiCG:  Solving for Ux, Initial residual = 0.017618921, Final residual = 3.0811094e-10, No Iterations 4
DILUPBiCG:  Solving for Uy, Initial residual = 0.018901612, Final residual = 6.1209018e-10, No Iterations 4
GAMG:  Solving for p, Initial residual = 0.0015685355, Final residual = 6.0666957e-06, No Iterations 3
GAMG:  Solving for p, Initial residual = 6.2159954e-06, Final residual = 2.1888906e-07, No Iterations 2
time step continuity errors : sum local = 1.5644613e-09, global = 1.4929174e-10, cumulative = -3.986079e-08
ExecutionTime = 0.19 s  ClockTime = 0 s

surfaceFieldValue inMassFlow write:
    sum(inlet) of phi = -0.1

surfaceFieldValue outMassFlow write:
    sum(outlet) of phi = 0.1

surfaceFieldValue outMax write:
    max(outlet) of U = (1.203482 0.00032930956 0)
    max(outlet) of p = 0

Time = 0.85

Courant Number mean: 0.50168736 max: 0.60197547
DILUPBiCG:  Solving for Ux, Initial residual = 0.015973539, Final residual = 2.6156537e-10, No Iterations 4
DILUPBiCG:  Solving for Uy, Initial residual = 0.017152901, Final residual = 5.5523944e-10, No Iterations 4
GAMG:  Solving for p, Initial residual = 0.0013552115, Final residual = 5.8567041e-06, No Iterations 3
GAMG:  Solving for p, Initial residual = 5.9902461e-06, Final residual = 2.2304941e-07, No Iterations 2
time step continuity errors : sum local = 1.5582418e-09, global = 1.4395571e-10, cumulative = -3.9716834e-08
ExecutionTime = 0.19 s  ClockTime = 0 s

surfaceFieldValue inMassFlow write:
    sum(inlet) of phi = -0.1

surfaceFieldValue outMassFlow write:
    sum(outlet) of phi = 0.1

surfaceFieldValue outMax write:
    max(outlet) of U = (1.2122531 0.00024291231 0)
    max(outlet) of p = 0

Time = 0.9

Courant Number mean: 0.50174229 max: 0.60634282
DILUPBiCG:  Solving for Ux, Initial residual = 0.014518542, Final residual = 2.0574501e-10, No Iterations 4
DILUPBiCG:  Solving for Uy, Initial residual = 0.015632895, Final residual = 5.0374688e-10, No Iterations 4
GAMG:  Solving for p, Initial residual = 0.0011825397, Final residual = 5.666403e-06, No Iterations 3
GAMG:  Solving for p, Initial residual = 5.786677e-06, Final residual = 2.2470132e-07, No Iterations 2
time step continuity errors : sum local = 1.536743e-09, global = 1.3301727e-10, cumulative = -3.9583817e-08
ExecutionTime = 0.19 s  ClockTime = 0 s

surfaceFieldValue inMassFlow write:
    sum(inlet) of phi = -0.1

surfaceFieldValue outMassFlow write:
    sum(outlet) of phi = 0.1

surfaceFieldValue outMax write:
    max(outlet) of U = (1.2207438 0.00018304747 0)
    max(outlet) of p = 0

Time = 0.95

Courant Number mean: 0.50179391 max: 0.61056104
DILUPBiCG:  Solving for Ux, Initial residual = 0.013244654, Final residual = 1.8593917e-10, No Iterations 4
DILUPBiCG:  Solving for Uy, Initial residual = 0.014332121, Final residual = 4.5906532e-10, No Iterations 4
GAMG:  Solving for p, Initial residual = 0.0010325291, Final residual = 5.393938e-06, No Iterations 3
GAMG:  Solving for p, Initial residual = 5.5004198e-06, Final residual = 2.1678325e-07, No Iterations 2
time step continuity errors : sum local = 1.4535623e-09, global = 1.1766462e-10, cumulative = -3.9466153e-08
ExecutionTime = 0.19 s  ClockTime = 0 s

surfaceFieldValue inMassFlow write:
    sum(inlet) of phi = -0.1

surfaceFieldValue outMassFlow write:
    sum(outlet) of phi = 0.1

surfaceFieldValue outMax write:
    max(outlet) of U = (1.2289599 0.00014067911 0)
    max(outlet) of p = 0

Time = 1

Courant Number mean: 0.50184287 max: 0.61464034
DILUPBiCG:  Solving for Ux, Initial residual = 0.012120851, Final residual = 1.6449119e-10, No Iterations 4
DILUPBiCG:  Solving for Uy, Initial residual = 0.013178805, Final residual = 4.1864592e-10, No Iterations 4
GAMG:  Solving for p, Initial residual = 0.00093402497, Final residual = 5.0427374e-06, No Iterations 3
GAMG:  Solving for p, Initial residual = 5.13539e-06, Final residual = 9.8347012e-07, No Iterations 1
time step continuity errors : sum local = 6.4741826e-09, global = 5.4880152e-10, cumulative = -3.8917351e-08
ExecutionTime = 0.21 s  ClockTime = 0 s

surfaceFieldValue inMassFlow write:
    sum(inlet) of phi = -0.1

surfaceFieldValue outMassFlow write:
    sum(outlet) of phi = 0.10000001

surfaceFieldValue outMax write:
    max(outlet) of U = (1.2369099 0.00010616597 0)
    max(outlet) of p = 0

Time = 1.05

Courant Number mean: 0.50188907 max: 0.61858938
DILUPBiCG:  Solving for Ux, Initial residual = 0.01112564, Final residual = 1.5556218e-10, No Iterations 4
DILUPBiCG:  Solving for Uy, Initial residual = 0.012157262, Final residual = 3.8425943e-10, No Iterations 4
GAMG:  Solving for p, Initial residual = 0.00086638461, Final residual = 4.5980928e-06, No Iterations 3
GAMG:  Solving for p, Initial residual = 4.6766469e-06, Final residual = 8.2254497e-07, No Iterations 1
time step continuity errors : sum local = 5.3235221e-09, global = 4.6494338e-10, cumulative = -3.8452408e-08
ExecutionTime = 0.21 s  ClockTime = 0 s

surfaceFieldValue inMassFlow write:
    sum(inlet) of phi = -0.1

surfaceFieldValue outMassFlow write:
    sum(outlet) of phi = 0.10000001

surfaceFieldValue outMax write:
    max(outlet) of U = (1.2446026 7.8789606e-05 0)
    max(outlet) of p = 0

Time = 1.1

Courant Number mean: 0.50193248 max: 0.62241101
DILUPBiCG:  Solving for Ux, Initial residual = 0.010239157, Final residual = 1.4483291e-10, No Iterations 4
DILUPBiCG:  Solving for Uy, Initial residual = 0.011251038, Final residual = 3.5463074e-10, No Iterations 4
GAMG:  Solving for p, Initial residual = 0.00078624522, Final residual = 4.0516485e-06, No Iterations 3
GAMG:  Solving for p, Initial residual = 4.1161319e-06, Final residual = 6.6674123e-07, No Iterations 1
time step continuity errors : sum local = 4.2474291e-09, global = 3.7134406e-10, cumulative = -3.8081064e-08
ExecutionTime = 0.22 s  ClockTime = 0 s

surfaceFieldValue inMassFlow write:
    sum(inlet) of phi = -0.1

surfaceFieldValue outMassFlow write:
    sum(outlet) of phi = 0.10000001

surfaceFieldValue outMax write:
    max(outlet) of U = (1.2520484 5.7601317e-05 0)
    max(outlet) of p = 0

Time = 1.15

Courant Number mean: 0.50197375 max: 0.62611208
DILUPBiCG:  Solving for Ux, Initial residual = 0.0094470746, Final residual = 1.3483597e-10, No Iterations 4
DILUPBiCG:  Solving for Uy, Initial residual = 0.010426974, Final residual = 3.2583075e-10, No Iterations 4
GAMG:  Solving for p, Initial residual = 0.00069731516, Final residual = 3.4877189e-06, No Iterations 3
GAMG:  Solving for p, Initial residual = 3.5395603e-06, Final residual = 5.321418e-07, No Iterations 1
time step continuity errors : sum local = 3.3403061e-09, global = 2.8572115e-10, cumulative = -3.7795342e-08
ExecutionTime = 0.22 s  ClockTime = 0 s

surfaceFieldValue inMassFlow write:
    sum(inlet) of phi = -0.1

surfaceFieldValue outMassFlow write:
    sum(outlet) of phi = 0.10000001

surfaceFieldValue outMax write:
    max(outlet) of U = (1.2592571 4.1564734e-05 0)
    max(outlet) of p = 0

Time = 1.2

Courant Number mean: 0.50201279 max: 0.62969994
DILUPBiCG:  Solving for Ux, Initial residual = 0.0087362039, Final residual = 1.2961295e-10, No Iterations 4
DILUPBiCG:  Solving for Uy, Initial residual = 0.0096978906, Final residual = 3.0057286e-10, No Iterations 4
GAMG:  Solving for p, Initial residual = 0.00061781192, Final residual = 2.9482576e-06, No Iterations 3
GAMG:  Solving for p, Initial residual = 2.9891095e-06, Final residual = 4.3061631e-07, No Iterations 1
time step continuity errors : sum local = 2.6662127e-09, global = 2.1370823e-10, cumulative = -3.7581634e-08
ExecutionTime = 0.22 s  ClockTime = 0 s

surfaceFieldValue inMassFlow write:
    sum(inlet) of phi = -0.1

surfaceFieldValue outMassFlow write:
    sum(outlet) of phi = 0.1

surfaceFieldValue outMax write:
    max(outlet) of U = (1.2662382 2.96573e-05 0)
    max(outlet) of p = 0

Time = 1.25

Courant Number mean: 0.50204981 max: 0.63317457
DILUPBiCG:  Solving for Ux, Initial residual = 0.0080956136, Final residual = 1.2769166e-10, No Iterations 4
DILUPBiCG:  Solving for Uy, Initial residual = 0.0090334284, Final residual = 2.7711955e-10, No Iterations 4
GAMG:  Solving for p, Initial residual = 0.00054174433, Final residual = 2.4950389e-06, No Iterations 3
GAMG:  Solving for p, Initial residual = 2.5273174e-06, Final residual = 3.5036569e-07, No Iterations 1
time step continuity errors : sum local = 2.1418156e-09, global = 1.5400898e-10, cumulative = -3.7427625e-08
ExecutionTime = 0.23 s  ClockTime = 0 s

surfaceFieldValue inMassFlow write:
    sum(inlet) of phi = -0.1

surfaceFieldValue outMassFlow write:
    sum(outlet) of phi = 0.1

surfaceFieldValue outMax write:
    max(outlet) of U = (1.2730005 2.096053e-05 0)
    max(outlet) of p = 0

Time = 1.3

Courant Number mean: 0.50208504 max: 0.63654276
DILUPBiCG:  Solving for Ux, Initial residual = 0.0075166917, Final residual = 1.2707111e-10, No Iterations 4
DILUPBiCG:  Solving for Uy, Initial residual = 0.008437366, Final residual = 2.5489229e-10, No Iterations 4
GAMG:  Solving for p, Initial residual = 0.00048870306, Final residual = 2.1337459e-06, No Iterations 3
GAMG:  Solving for p, Initial residual = 2.1595959e-06, Final residual = 2.9203483e-07, No Iterations 1
time step continuity errors : sum local = 1.7640372e-09, global = 1.101156e-10, cumulative = -3.731751e-08
ExecutionTime = 0.23 s  ClockTime = 0 s

surfaceFieldValue inMassFlow write:
    sum(inlet) of phi = -0.1

surfaceFieldValue outMassFlow write:
    sum(outlet) of phi = 0.1

surfaceFieldValue outMax write:
    max(outlet) of U = (1.2795523 1.4684492e-05 0)
    max(outlet) of p = 0

Time = 1.35

Courant Number mean: 0.50211854 max: 0.63980985
DILUPBiCG:  Solving for Ux, Initial residual = 0.0069951587, Final residual = 1.2754835e-10, No Iterations 4
DILUPBiCG:  Solving for Uy, Initial residual = 0.0078979814, Final residual = 2.3366791e-10, No Iterations 4
GAMG:  Solving for p, Initial residual = 0.00044077217, Final residual = 1.858123e-06, No Iterations 3
GAMG:  Solving for p, Initial residual = 1.8792284e-06, Final residual = 2.537197e-07, No Iterations 1
time step continuity errors : sum local = 1.5155355e-09, global = 8.385838e-11, cumulative = -3.7233651e-08
ExecutionTime = 0.23 s  ClockTime = 0 s

surfaceFieldValue inMassFlow write:
    sum(inlet) of phi = -0.1

surfaceFieldValue outMassFlow write:
    sum(outlet) of phi = 0.1

surfaceFieldValue outMax write:
    max(outlet) of U = (1.285901 1.0175664e-05 0)
    max(outlet) of p = 0

Time = 1.4

Courant Number mean: 0.50215051 max: 0.64297613
DILUPBiCG:  Solving for Ux, Initial residual = 0.0065957419, Final residual = 1.3133842e-10, No Iterations 4
DILUPBiCG:  Solving for Uy, Initial residual = 0.0074081683, Final residual = 2.1443902e-10, No Iterations 4
GAMG:  Solving for p, Initial residual = 0.00039708977, Final residual = 1.6292661e-06, No Iterations 3
GAMG:  Solving for p, Initial residual = 1.6465938e-06, Final residual = 2.2423775e-07, No Iterations 1
time step continuity errors : sum local = 1.3255054e-09, global = 6.9091769e-11, cumulative = -3.7164559e-08
ExecutionTime = 0.24 s  ClockTime = 0 s

surfaceFieldValue inMassFlow write:
    sum(inlet) of phi = -0.1

surfaceFieldValue outMassFlow write:
    sum(outlet) of phi = 0.1

surfaceFieldValue outMax write:
    max(outlet) of U = (1.2920534 7.4394661e-06 0)
    max(outlet) of p = 0

Time = 1.45

Courant Number mean: 0.50218097 max: 0.64604555
DILUPBiCG:  Solving for Ux, Initial residual = 0.0062283505, Final residual = 1.3640196e-10, No Iterations 4
DILUPBiCG:  Solving for Uy, Initial residual = 0.0069622507, Final residual = 1.9757454e-10, No Iterations 4
GAMG:  Solving for p, Initial residual = 0.00036636922, Final residual = 1.4204607e-06, No Iterations 3
GAMG:  Solving for p, Initial residual = 1.4346393e-06, Final residual = 1.9803949e-07, No Iterations 1
time step continuity errors : sum local = 1.1592308e-09, global = 5.4645234e-11, cumulative = -3.7109914e-08
ExecutionTime = 0.24 s  ClockTime = 0 s

surfaceFieldValue inMassFlow write:
    sum(inlet) of phi = -0.1

surfaceFieldValue outMassFlow write:
    sum(outlet) of phi = 0.1

surfaceFieldValue outMax write:
    max(outlet) of U = (1.2980158 5.6351331e-06 0)
    max(outlet) of p = 0

Time = 1.5

Courant Number mean: 0.50221016 max: 0.64902122
DILUPBiCG:  Solving for Ux, Initial residual = 0.005888117, Final residual = 1.4185711e-10, No Iterations 4
DILUPBiCG:  Solving for Uy, Initial residual = 0.0065566272, Final residual = 1.8478333e-10, No Iterations 4
GAMG:  Solving for p, Initial residual = 0.00033784943, Final residual = 1.2456899e-06, No Iterations 3
GAMG:  Solving for p, Initial residual = 1.2573662e-06, Final residual = 1.7881556e-07, No Iterations 1
time step continuity errors : sum local = 1.0371336e-09, global = 5.043702e-11, cumulative = -3.7059477e-08
ExecutionTime = 0.24 s  ClockTime = 0 s

surfaceFieldValue inMassFlow write:
    sum(inlet) of phi = -0.1

surfaceFieldValue outMassFlow write:
    sum(outlet) of phi = 0.1

surfaceFieldValue outMax write:
    max(outlet) of U = (1.3037939 4.0060651e-06 0)
    max(outlet) of p = 0

Time = 1.55

Courant Number mean: 0.50223807 max: 0.65190596
DILUPBiCG:  Solving for Ux, Initial residual = 0.0055719235, Final residual = 1.4772966e-10, No Iterations 4
DILUPBiCG:  Solving for Uy, Initial residual = 0.0061807921, Final residual = 1.7452646e-10, No Iterations 4
GAMG:  Solving for p, Initial residual = 0.00030829186, Final residual = 1.1258945e-06, No Iterations 3
GAMG:  Solving for p, Initial residual = 1.1358351e-06, Final residual = 1.5840542e-07, No Iterations 1
time step continuity errors : sum local = 9.1083685e-10, global = 4.5483572e-11, cumulative = -3.7013994e-08
ExecutionTime = 0.25 s  ClockTime = 0 s

surfaceFieldValue inMassFlow write:
    sum(inlet) of phi = -0.1

surfaceFieldValue outMassFlow write:
    sum(outlet) of phi = 0.1

surfaceFieldValue outMax write:
    max(outlet) of U = (1.3093931 2.5930707e-06 0)
    max(outlet) of p = 0

Time = 1.6

Courant Number mean: 0.50226482 max: 0.6547026
DILUPBiCG:  Solving for Ux, Initial residual = 0.0052773327, Final residual = 1.5406016e-10, No Iterations 4
DILUPBiCG:  Solving for Uy, Initial residual = 0.0058391904, Final residual = 1.6497428e-10, No Iterations 4
GAMG:  Solving for p, Initial residual = 0.00027964943, Final residual = 1.025207e-06, No Iterations 3
GAMG:  Solving for p, Initial residual = 1.033734e-06, Final residual = 1.4233659e-07, No Iterations 1
time step continuity errors : sum local = 8.1179609e-10, global = 4.233329e-11, cumulative = -3.697166e-08
ExecutionTime = 0.25 s  ClockTime = 0 s

surfaceFieldValue inMassFlow write:
    sum(inlet) of phi = -0.1

surfaceFieldValue outMassFlow write:
    sum(outlet) of phi = 0.1

surfaceFieldValue outMax write:
    max(outlet) of U = (1.3148184 1.3199984e-06 0)
    max(outlet) of p = 0

Time = 1.65

Courant Number mean: 0.50229048 max: 0.65741271
DILUPBiCG:  Solving for Ux, Initial residual = 0.0050021582, Final residual = 1.6085033e-10, No Iterations 4
DILUPBiCG:  Solving for Uy, Initial residual = 0.0055241469, Final residual = 1.565512e-10, No Iterations 4
GAMG:  Solving for p, Initial residual = 0.00025351148, Final residual = 9.4349364e-07, No Iterations 3
GAMG:  Solving for p, Initial residual = 9.5089387e-07, Final residual = 9.5089387e-07, No Iterations 0
time step continuity errors : sum local = 5.3817615e-09, global = 3.7242795e-10, cumulative = -3.6599232e-08
ExecutionTime = 0.25 s  ClockTime = 1 s

surfaceFieldValue inMassFlow write:
    sum(inlet) of phi = -0.1

surfaceFieldValue outMassFlow write:
    sum(outlet) of phi = 0.10000001

surfaceFieldValue outMax write:
    max(outlet) of U = (1.3200748 1.5818555e-06 0)
    max(outlet) of p = 0

Time = 1.7

Courant Number mean: 0.50231514 max: 0.66003879
DILUPBiCG:  Solving for Ux, Initial residual = 0.0047446848, Final residual = 1.6836954e-10, No Iterations 4
DILUPBiCG:  Solving for Uy, Initial residual = 0.0052300398, Final residual = 1.4855009e-10, No Iterations 4
GAMG:  Solving for p, Initial residual = 0.00023594296, Final residual = 8.4181634e-07, No Iterations 3
GAMG:  Solving for p, Initial residual = 8.48053e-07, Final residual = 8.48053e-07, No Iterations 0
time step continuity errors : sum local = 4.765055e-09, global = 3.3680066e-10, cumulative = -3.6262432e-08
ExecutionTime = 0.26 s  ClockTime = 1 s

surfaceFieldValue inMassFlow write:
    sum(inlet) of phi = -0.1

surfaceFieldValue outMassFlow write:
    sum(outlet) of phi = 0.10000001

surfaceFieldValue outMax write:
    max(outlet) of U = (1.3251667 2.4575783e-06 0)
    max(outlet) of p = 0

Time = 1.75

Courant Number mean: 0.50233881 max: 0.66258303
DILUPBiCG:  Solving for Ux, Initial residual = 0.0045033459, Final residual = 1.7748305e-10, No Iterations 4
DILUPBiCG:  Solving for Uy, Initial residual = 0.0049568637, Final residual = 1.4124991e-10, No Iterations 4
GAMG:  Solving for p, Initial residual = 0.00021909137, Final residual = 7.7142287e-07, No Iterations 3
GAMG:  Solving for p, Initial residual = 7.7681866e-07, Final residual = 7.7681866e-07, No Iterations 0
time step continuity errors : sum local = 4.3350195e-09, global = 3.1810929e-10, cumulative = -3.5944322e-08
ExecutionTime = 0.26 s  ClockTime = 1 s

surfaceFieldValue inMassFlow write:
    sum(inlet) of phi = -0.1

surfaceFieldValue outMassFlow write:
    sum(outlet) of phi = 0.10000001

surfaceFieldValue outMax write:
    max(outlet) of U = (1.3300986 3.2008642e-06 0)
    max(outlet) of p = 0

Time = 1.8

Courant Number mean: 0.50236154 max: 0.66504763
DILUPBiCG:  Solving for Ux, Initial residual = 0.00427674, Final residual = 1.8802137e-10, No Iterations 4
DILUPBiCG:  Solving for Uy, Initial residual = 0.0047023023, Final residual = 1.3411257e-10, No Iterations 4
GAMG:  Solving for p, Initial residual = 0.00020444702, Final residual = 7.0810974e-07, No Iterations 3
GAMG:  Solving for p, Initial residual = 7.1279573e-07, Final residual = 7.1279573e-07, No Iterations 0
time step continuity errors : sum local = 3.9520441e-09, global = 2.9909822e-10, cumulative = -3.5645224e-08
ExecutionTime = 0.26 s  ClockTime = 1 s

surfaceFieldValue inMassFlow write:
    sum(inlet) of phi = -0.1

surfaceFieldValue outMassFlow write:
    sum(outlet) of phi = 0.10000001

surfaceFieldValue outMax write:
    max(outlet) of U = (1.3348749 3.8202245e-06 0)
    max(outlet) of p = 0

Time = 1.85

Courant Number mean: 0.50238337 max: 0.66743487
DILUPBiCG:  Solving for Ux, Initial residual = 0.0040636945, Final residual = 2.0031891e-10, No Iterations 4
DILUPBiCG:  Solving for Uy, Initial residual = 0.0044653154, Final residual = 9.5752796e-09, No Iterations 3
GAMG:  Solving for p, Initial residual = 0.00019036599, Final residual = 6.4619261e-07, No Iterations 3
GAMG:  Solving for p, Initial residual = 6.5023934e-07, Final residual = 6.5023934e-07, No Iterations 0
time step continuity errors : sum local = 3.5831536e-09, global = 2.7926729e-10, cumulative = -3.5365957e-08
ExecutionTime = 0.27 s  ClockTime = 1 s

surfaceFieldValue inMassFlow write:
    sum(inlet) of phi = -0.1

surfaceFieldValue outMassFlow write:
    sum(outlet) of phi = 0.10000001

surfaceFieldValue outMax write:
    max(outlet) of U = (1.3394997 4.3109548e-06 0)
    max(outlet) of p = 0

Time = 1.9

Courant Number mean: 0.50240432 max: 0.66974744
DILUPBiCG:  Solving for Ux, Initial residual = 0.0038631452, Final residual = 2.154867e-10, No Iterations 4
DILUPBiCG:  Solving for Uy, Initial residual = 0.0042438876, Final residual = 9.150412e-09, No Iterations 3
GAMG:  Solving for p, Initial residual = 0.00017897112, Final residual = 5.8796627e-07, No Iterations 3
GAMG:  Solving for p, Initial residual = 5.9145312e-07, Final residual = 5.9145312e-07, No Iterations 0
time step continuity errors : sum local = 3.2403255e-09, global = 2.6261456e-10, cumulative = -3.5103342e-08
ExecutionTime = 0.27 s  ClockTime = 1 s

surfaceFieldValue inMassFlow write:
    sum(inlet) of phi = -0.1

surfaceFieldValue outMassFlow write:
    sum(outlet) of phi = 0.10000001

surfaceFieldValue outMax write:
    max(outlet) of U = (1.3439772 4.6748228e-06 0)
    max(outlet) of p = 0

Time = 1.95

Courant Number mean: 0.50242445 max: 0.67198631
DILUPBiCG:  Solving for Ux, Initial residual = 0.0036741542, Final residual = 2.4377415e-10, No Iterations 4
DILUPBiCG:  Solving for Uy, Initial residual = 0.0040372633, Final residual = 8.7425853e-09, No Iterations 3
GAMG:  Solving for p, Initial residual = 0.00016788583, Final residual = 5.4171524e-07, No Iterations 3
GAMG:  Solving for p, Initial residual = 5.4475834e-07, Final residual = 5.4475834e-07, No Iterations 0
time step continuity errors : sum local = 2.9681222e-09, global = 2.4596036e-10, cumulative = -3.4857382e-08
ExecutionTime = 0.27 s  ClockTime = 1 s

surfaceFieldValue inMassFlow write:
    sum(inlet) of phi = -0.1

surfaceFieldValue outMassFlow write:
    sum(outlet) of phi = 0.1

surfaceFieldValue outMax write:
    max(outlet) of U = (1.3483114 4.9252328e-06 0)
    max(outlet) of p = 0

Time = 2

Courant Number mean: 0.50244378 max: 0.6741535
DILUPBiCG:  Solving for Ux, Initial residual = 0.0034958642, Final residual = 2.8838088e-10, No Iterations 4
DILUPBiCG:  Solving for Uy, Initial residual = 0.0038438632, Final residual = 8.3675775e-09, No Iterations 3
GAMG:  Solving for p, Initial residual = 0.00015768143, Final residual = 4.9970849e-07, No Iterations 3
GAMG:  Solving for p, Initial residual = 5.02369e-07, Final residual = 5.02369e-07, No Iterations 0
time step continuity errors : sum local = 2.7229244e-09, global = 2.2745815e-10, cumulative = -3.4629924e-08
ExecutionTime = 0.28 s  ClockTime = 1 s

surfaceFieldValue inMassFlow write:
    sum(inlet) of phi = -0.1

surfaceFieldValue outMassFlow write:
    sum(outlet) of phi = 0.1

surfaceFieldValue outMax write:
    max(outlet) of U = (1.3525062 5.0772618e-06 0)
    max(outlet) of p = 0

Time = 2.05

Courant Number mean: 0.50246234 max: 0.676251
DILUPBiCG:  Solving for Ux, Initial residual = 0.0033274933, Final residual = 3.4353327e-10, No Iterations 4
DILUPBiCG:  Solving for Uy, Initial residual = 0.0036624621, Final residual = 8.0122896e-09, No Iterations 3
GAMG:  Solving for p, Initial residual = 0.00014815132, Final residual = 4.5779847e-07, No Iterations 3
GAMG:  Solving for p, Initial residual = 4.6011071e-07, Final residual = 4.6011071e-07, No Iterations 0
time step continuity errors : sum local = 2.4815662e-09, global = 2.1592525e-10, cumulative = -3.4413999e-08
ExecutionTime = 0.28 s  ClockTime = 1 s

surfaceFieldValue inMassFlow write:
    sum(inlet) of phi = -0.1

surfaceFieldValue outMassFlow write:
    sum(outlet) of phi = 0.1

surfaceFieldValue outMax write:
    max(outlet) of U = (1.3565656 5.1479045e-06 0)
    max(outlet) of p = 0

Time = 2.1

Courant Number mean: 0.50248017 max: 0.67828074
DILUPBiCG:  Solving for Ux, Initial residual = 0.0031683528, Final residual = 9.9510638e-09, No Iterations 3
DILUPBiCG:  Solving for Uy, Initial residual = 0.0034921039, Final residual = 7.6684567e-09, No Iterations 3
GAMG:  Solving for p, Initial residual = 0.00014090141, Final residual = 4.177622e-07, No Iterations 3
GAMG:  Solving for p, Initial residual = 4.1976494e-07, Final residual = 4.1976494e-07, No Iterations 0
time step continuity errors : sum local = 2.253354e-09, global = 2.0352801e-10, cumulative = -3.4210471e-08
ExecutionTime = 0.29 s  ClockTime = 1 s

surfaceFieldValue inMassFlow write:
    sum(inlet) of phi = -0.1

surfaceFieldValue outMassFlow write:
    sum(outlet) of phi = 0.1

surfaceFieldValue outMax write:
    max(outlet) of U = (1.3604932 5.1536916e-06 0)
    max(outlet) of p = 0

Time = 2.15

Courant Number mean: 0.5024973 max: 0.68024464
DILUPBiCG:  Solving for Ux, Initial residual = 0.003017805, Final residual = 8.8510271e-09, No Iterations 3
DILUPBiCG:  Solving for Uy, Initial residual = 0.0033316202, Final residual = 7.3506288e-09, No Iterations 3
GAMG:  Solving for p, Initial residual = 0.00013372206, Final residual = 3.825266e-07, No Iterations 3
GAMG:  Solving for p, Initial residual = 3.8426804e-07, Final residual = 3.8426804e-07, No Iterations 0
time step continuity errors : sum local = 2.0536186e-09, global = 1.9163316e-10, cumulative = -3.4018837e-08
ExecutionTime = 0.29 s  ClockTime = 1 s

surfaceFieldValue inMassFlow write:
    sum(inlet) of phi = -0.1

surfaceFieldValue outMassFlow write:
    sum(outlet) of phi = 0.1

surfaceFieldValue outMax write:
    max(outlet) of U = (1.3642929 5.1097938e-06 0)
    max(outlet) of p = 0

Time = 2.2

Courant Number mean: 0.50251377 max: 0.68214455
DILUPBiCG:  Solving for Ux, Initial residual = 0.0028752949, Final residual = 7.9745563e-09, No Iterations 3
DILUPBiCG:  Solving for Uy, Initial residual = 0.0031801889, Final residual = 7.044609e-09, No Iterations 3
GAMG:  Solving for p, Initial residual = 0.00012706311, Final residual = 3.5323052e-07, No Iterations 3
GAMG:  Solving for p, Initial residual = 3.5475827e-07, Final residual = 3.5475827e-07, No Iterations 0
time step continuity errors : sum local = 1.8878912e-09, global = 1.6618533e-10, cumulative = -3.3852652e-08
ExecutionTime = 0.29 s  ClockTime = 1 s

surfaceFieldValue inMassFlow write:
    sum(inlet) of phi = -0.1

surfaceFieldValue outMassFlow write:
    sum(outlet) of phi = 0.1

surfaceFieldValue outMax write:
    max(outlet) of U = (1.3679682 5.0290206e-06 0)
    max(outlet) of p = 0

Time = 2.25

Courant Number mean: 0.50252959 max: 0.68398229
DILUPBiCG:  Solving for Ux, Initial residual = 0.0027402856, Final residual = 7.2521378e-09, No Iterations 3
DILUPBiCG:  Solving for Uy, Initial residual = 0.0030370659, Final residual = 6.7463193e-09, No Iterations 3
GAMG:  Solving for p, Initial residual = 0.00012028839, Final residual = 3.2535043e-07, No Iterations 3
GAMG:  Solving for p, Initial residual = 3.2668778e-07, Final residual = 3.2668778e-07, No Iterations 0
time step continuity errors : sum local = 1.7315198e-09, global = 1.6312714e-10, cumulative = -3.3689525e-08
ExecutionTime = 0.3 s  ClockTime = 1 s

surfaceFieldValue inMassFlow write:
    sum(inlet) of phi = -0.1

surfaceFieldValue outMassFlow write:
    sum(outlet) of phi = 0.1

surfaceFieldValue outMax write:
    max(outlet) of U = (1.3715228 4.9216423e-06 0)
    max(outlet) of p = 0

Time = 2.3

Courant Number mean: 0.5025448 max: 0.68575966
DILUPBiCG:  Solving for Ux, Initial residual = 0.0026122818, Final residual = 6.7032354e-09, No Iterations 3
DILUPBiCG:  Solving for Uy, Initial residual = 0.0029018008, Final residual = 6.4694415e-09, No Iterations 3
GAMG:  Solving for p, Initial residual = 0.00011457178, Final residual = 3.0069486e-07, No Iterations 3
GAMG:  Solving for p, Initial residual = 3.018701e-07, Final residual = 3.018701e-07, No Iterations 0
time step continuity errors : sum local = 1.5938624e-09, global = 1.5863941e-10, cumulative = -3.3530886e-08
ExecutionTime = 0.3 s  ClockTime = 1 s

surfaceFieldValue inMassFlow write:
    sum(inlet) of phi = -0.1

surfaceFieldValue outMassFlow write:
    sum(outlet) of phi = 0.1

surfaceFieldValue outMax write:
    max(outlet) of U = (1.3749602 4.7959654e-06 0)
    max(outlet) of p = 0

Time = 2.35

Courant Number mean: 0.50255943 max: 0.68747841
DILUPBiCG:  Solving for Ux, Initial residual = 0.0024908602, Final residual = 6.236643e-09, No Iterations 3
DILUPBiCG:  Solving for Uy, Initial residual = 0.0027738864, Final residual = 6.1961498e-09, No Iterations 3
GAMG:  Solving for p, Initial residual = 0.00010865903, Final residual = 2.7960031e-07, No Iterations 3
GAMG:  Solving for p, Initial residual = 2.8063929e-07, Final residual = 2.8063929e-07, No Iterations 0
time step continuity errors : sum local = 1.4763791e-09, global = 1.5019383e-10, cumulative = -3.3380692e-08
ExecutionTime = 0.3 s  ClockTime = 1 s

surfaceFieldValue inMassFlow write:
    sum(inlet) of phi = -0.1

surfaceFieldValue outMassFlow write:
    sum(outlet) of phi = 0.1

surfaceFieldValue outMax write:
    max(outlet) of U = (1.3782837 4.6581867e-06 0)
    max(outlet) of p = 0

Time = 2.4

Courant Number mean: 0.50257349 max: 0.68914024
DILUPBiCG:  Solving for Ux, Initial residual = 0.0023756063, Final residual = 5.821624e-09, No Iterations 3
DILUPBiCG:  Solving for Uy, Initial residual = 0.0026528387, Final residual = 5.9413369e-09, No Iterations 3
GAMG:  Solving for p, Initial residual = 0.00010353361, Final residual = 2.5980322e-07, No Iterations 3
GAMG:  Solving for p, Initial residual = 2.607218e-07, Final residual = 2.607218e-07, No Iterations 0
time step continuity errors : sum local = 1.366854e-09, global = 1.4224518e-10, cumulative = -3.3238447e-08
ExecutionTime = 0.31 s  ClockTime = 1 s

surfaceFieldValue inMassFlow write:
    sum(inlet) of phi = -0.1

surfaceFieldValue outMassFlow write:
    sum(outlet) of phi = 0.1

surfaceFieldValue outMax write:
    max(outlet) of U = (1.3814967 4.5128938e-06 0)
    max(outlet) of p = 0

Time = 2.45

Courant Number mean: 0.50258701 max: 0.69074685
DILUPBiCG:  Solving for Ux, Initial residual = 0.0022661595, Final residual = 5.4482904e-09, No Iterations 3
DILUPBiCG:  Solving for Uy, Initial residual = 0.0025381414, Final residual = 5.6967826e-09, No Iterations 3
GAMG:  Solving for p, Initial residual = 9.8487133e-05, Final residual = 2.4247124e-07, No Iterations 3
GAMG:  Solving for p, Initial residual = 2.432872e-07, Final residual = 2.432872e-07, No Iterations 0
time step continuity errors : sum local = 1.271253e-09, global = 1.3458557e-10, cumulative = -3.3103861e-08
ExecutionTime = 0.31 s  ClockTime = 1 s

surfaceFieldValue inMassFlow write:
    sum(inlet) of phi = -0.1

surfaceFieldValue outMassFlow write:
    sum(outlet) of phi = 0.1

surfaceFieldValue outMax write:
    max(outlet) of U = (1.3846026 4.3634972e-06 0)
    max(outlet) of p = 0

Time = 2.5

Courant Number mean: 0.50260002 max: 0.69229986
DILUPBiCG:  Solving for Ux, Initial residual = 0.0021621389, Final residual = 5.1099061e-09, No Iterations 3
DILUPBiCG:  Solving for Uy, Initial residual = 0.0024293491, Final residual = 5.4602527e-09, No Iterations 3
GAMG:  Solving for p, Initial residual = 9.43051e-05, Final residual = 2.2532466e-07, No Iterations 3
GAMG:  Solving for p, Initial residual = 2.2604656e-07, Final residual = 2.2604656e-07, No Iterations 0
time step continuity errors : sum local = 1.1774629e-09, global = 1.2742632e-10, cumulative = -3.2976435e-08
ExecutionTime = 0.31 s  ClockTime = 1 s

surfaceFieldValue inMassFlow write:
    sum(inlet) of phi = -0.1

surfaceFieldValue outMassFlow write:
    sum(outlet) of phi = 0.1

surfaceFieldValue outMax write:
    max(outlet) of U = (1.3876046 4.2124986e-06 0)
    max(outlet) of p = 0

Time = 2.55

Courant Number mean: 0.50261254 max: 0.6938009
DILUPBiCG:  Solving for Ux, Initial residual = 0.0020632278, Final residual = 4.8011996e-09, No Iterations 3
DILUPBiCG:  Solving for Uy, Initial residual = 0.0023260564, Final residual = 5.238429e-09, No Iterations 3
GAMG:  Solving for p, Initial residual = 9.0124907e-05, Final residual = 2.1057598e-07, No Iterations 3
GAMG:  Solving for p, Initial residual = 2.1121847e-07, Final residual = 2.1121847e-07, No Iterations 0
time step continuity errors : sum local = 1.0969399e-09, global = 1.2074262e-10, cumulative = -3.2855692e-08
ExecutionTime = 0.32 s  ClockTime = 1 s

surfaceFieldValue inMassFlow write:
    sum(inlet) of phi = -0.1

surfaceFieldValue outMassFlow write:
    sum(outlet) of phi = 0.1

surfaceFieldValue outMax write:
    max(outlet) of U = (1.3905057 4.0616889e-06 0)
    max(outlet) of p = 0

Time = 2.6

Courant Number mean: 0.50262458 max: 0.69525153
DILUPBiCG:  Solving for Ux, Initial residual = 0.0019691364, Final residual = 4.5180872e-09, No Iterations 3
DILUPBiCG:  Solving for Uy, Initial residual = 0.0022279281, Final residual = 5.024259e-09, No Iterations 3
GAMG:  Solving for p, Initial residual = 8.6330898e-05, Final residual = 1.9623484e-07, No Iterations 3
GAMG:  Solving for p, Initial residual = 1.9680516e-07, Final residual = 1.9680516e-07, No Iterations 0
time step continuity errors : sum local = 1.0191795e-09, global = 1.1567053e-10, cumulative = -3.2740022e-08
ExecutionTime = 0.33 s  ClockTime = 1 s

surfaceFieldValue inMassFlow write:
    sum(inlet) of phi = -0.1

surfaceFieldValue outMassFlow write:
    sum(outlet) of phi = 0.1

surfaceFieldValue outMax write:
    max(outlet) of U = (1.3933091 3.9123906e-06 0)
    max(outlet) of p = 0

Time = 2.65

Courant Number mean: 0.50263616 max: 0.69665328
DILUPBiCG:  Solving for Ux, Initial residual = 0.0018795958, Final residual = 4.2573238e-09, No Iterations 3
DILUPBiCG:  Solving for Uy, Initial residual = 0.0021346324, Final residual = 4.8209235e-09, No Iterations 3
GAMG:  Solving for p, Initial residual = 8.2507506e-05, Final residual = 1.8315863e-07, No Iterations 3
GAMG:  Solving for p, Initial residual = 1.836658e-07, Final residual = 1.836658e-07, No Iterations 0
time step continuity errors : sum local = 9.4855859e-10, global = 1.0862126e-10, cumulative = -3.26314e-08
ExecutionTime = 0.33 s  ClockTime = 1 s

surfaceFieldValue inMassFlow write:
    sum(inlet) of phi = -0.1

surfaceFieldValue outMassFlow write:
    sum(outlet) of phi = 0.1

surfaceFieldValue outMax write:
    max(outlet) of U = (1.3960177 3.7655901e-06 0)
    max(outlet) of p = 0

Time = 2.7

Courant Number mean: 0.50264731 max: 0.69800766
DILUPBiCG:  Solving for Ux, Initial residual = 0.0017943553, Final residual = 4.0168618e-09, No Iterations 3
DILUPBiCG:  Solving for Uy, Initial residual = 0.0020458718, Final residual = 4.6295131e-09, No Iterations 3
GAMG:  Solving for p, Initial residual = 7.9043619e-05, Final residual = 1.7168798e-07, No Iterations 3
GAMG:  Solving for p, Initial residual = 1.7214103e-07, Final residual = 1.7214103e-07, No Iterations 0
time step continuity errors : sum local = 8.8674231e-10, global = 1.0337403e-10, cumulative = -3.2528026e-08
ExecutionTime = 0.33 s  ClockTime = 1 s

surfaceFieldValue inMassFlow write:
    sum(inlet) of phi = -0.1

surfaceFieldValue outMassFlow write:
    sum(outlet) of phi = 0.1

surfaceFieldValue outMax write:
    max(outlet) of U = (1.3986345 3.6219717e-06 0)
    max(outlet) of p = 0

Time = 2.75

Courant Number mean: 0.50265804 max: 0.69931613
DILUPBiCG:  Solving for Ux, Initial residual = 0.0017131815, Final residual = 3.7939669e-09, No Iterations 3
DILUPBiCG:  Solving for Uy, Initial residual = 0.0019613587, Final residual = 4.4424512e-09, No Iterations 3
GAMG:  Solving for p, Initial residual = 7.5569453e-05, Final residual = 1.6114738e-07, No Iterations 3
GAMG:  Solving for p, Initial residual = 1.6155268e-07, Final residual = 1.6155268e-07, No Iterations 0
time step continuity errors : sum local = 8.3015088e-10, global = 9.7913855e-11, cumulative = -3.2430112e-08
ExecutionTime = 0.34 s  ClockTime = 1 s

surfaceFieldValue inMassFlow write:
    sum(inlet) of phi = -0.1

surfaceFieldValue outMassFlow write:
    sum(outlet) of phi = 0.1

surfaceFieldValue outMax write:
    max(outlet) of U = (1.4011624 3.4820805e-06 0)
    max(outlet) of p = 0

Time = 2.8

Courant Number mean: 0.50266837 max: 0.70058012
DILUPBiCG:  Solving for Ux, Initial residual = 0.0016358565, Final residual = 3.586965e-09, No Iterations 3
DILUPBiCG:  Solving for Uy, Initial residual = 0.0018808449, Final residual = 4.2692329e-09, No Iterations 3
GAMG:  Solving for p, Initial residual = 7.2475816e-05, Final residual = 9.7960677e-07, No Iterations 2
GAMG:  Solving for p, Initial residual = 9.8194326e-07, Final residual = 9.8194326e-07, No Iterations 0
time step continuity errors : sum local = 5.0340154e-09, global = 2.6726148e-10, cumulative = -3.2162851e-08
ExecutionTime = 0.34 s  ClockTime = 1 s

surfaceFieldValue inMassFlow write:
    sum(inlet) of phi = -0.1

surfaceFieldValue outMassFlow write:
    sum(outlet) of phi = 0.10000001

surfaceFieldValue outMax write:
    max(outlet) of U = (1.4036042 3.3458852e-06 0)
    max(outlet) of p = 0

Time = 2.85

Courant Number mean: 0.50267834 max: 0.70180106
DILUPBiCG:  Solving for Ux, Initial residual = 0.0015621541, Final residual = 3.3937514e-09, No Iterations 3
DILUPBiCG:  Solving for Uy, Initial residual = 0.0018040174, Final residual = 4.1006554e-09, No Iterations 3
GAMG:  Solving for p, Initial residual = 6.9757956e-05, Final residual = 9.6187513e-07, No Iterations 2
GAMG:  Solving for p, Initial residual = 9.6408859e-07, Final residual = 9.6408859e-07, No Iterations 0
time step continuity errors : sum local = 4.9313521e-09, global = 2.421455e-10, cumulative = -3.1920705e-08
ExecutionTime = 0.34 s  ClockTime = 1 s

surfaceFieldValue inMassFlow write:
    sum(inlet) of phi = -0.1

surfaceFieldValue outMassFlow write:
    sum(outlet) of phi = 0.1

surfaceFieldValue outMax write:
    max(outlet) of U = (1.4059625 3.2153487e-06 0)
    max(outlet) of p = 0

Time = 2.9

Courant Number mean: 0.50268791 max: 0.70298026
DILUPBiCG:  Solving for Ux, Initial residual = 0.0014919533, Final residual = 3.2150244e-09, No Iterations 3
DILUPBiCG:  Solving for Uy, Initial residual = 0.0017308663, Final residual = 3.9400087e-09, No Iterations 3
GAMG:  Solving for p, Initial residual = 6.6860968e-05, Final residual = 8.9811192e-07, No Iterations 2
GAMG:  Solving for p, Initial residual = 9.000671e-07, Final residual = 9.000671e-07, No Iterations 0
time step continuity errors : sum local = 4.5940724e-09, global = 2.2526442e-10, cumulative = -3.1695441e-08
ExecutionTime = 0.34 s  ClockTime = 1 s

surfaceFieldValue inMassFlow write:
    sum(inlet) of phi = -0.1

surfaceFieldValue outMassFlow write:
    sum(outlet) of phi = 0.1

surfaceFieldValue outMax write:
    max(outlet) of U = (1.40824 3.0890055e-06 0)
    max(outlet) of p = 0

Time = 2.95

Courant Number mean: 0.50269712 max: 0.70411906
DILUPBiCG:  Solving for Ux, Initial residual = 0.0014249957, Final residual = 3.047161e-09, No Iterations 3
DILUPBiCG:  Solving for Uy, Initial residual = 0.0016609915, Final residual = 3.7873991e-09, No Iterations 3
GAMG:  Solving for p, Initial residual = 6.4013153e-05, Final residual = 8.4836803e-07, No Iterations 2
GAMG:  Solving for p, Initial residual = 8.5013192e-07, Final residual = 8.5013192e-07, No Iterations 0
time step continuity errors : sum local = 4.3303682e-09, global = 2.1782487e-10, cumulative = -3.1477616e-08
ExecutionTime = 0.35 s  ClockTime = 1 s

surfaceFieldValue inMassFlow write:
    sum(inlet) of phi = -0.1

surfaceFieldValue outMassFlow write:
    sum(outlet) of phi = 0.1

surfaceFieldValue outMax write:
    max(outlet) of U = (1.4104393 2.9677832e-06 0)
    max(outlet) of p = 0

Time = 3

Courant Number mean: 0.502706 max: 0.70521876
DILUPBiCG:  Solving for Ux, Initial residual = 0.0013611492, Final residual = 2.8905999e-09, No Iterations 3
DILUPBiCG:  Solving for Uy, Initial residual = 0.0015942748, Final residual = 3.6404685e-09, No Iterations 3
GAMG:  Solving for p, Initial residual = 6.1496968e-05, Final residual = 8.0656284e-07, No Iterations 2
GAMG:  Solving for p, Initial residual = 8.081618e-07, Final residual = 8.081618e-07, No Iterations 0
time step continuity errors : sum local = 4.1085974e-09, global = 2.0594385e-10, cumulative = -3.1271672e-08
ExecutionTime = 0.35 s  ClockTime = 1 s

surfaceFieldValue inMassFlow write:
    sum(inlet) of phi = -0.1

surfaceFieldValue outMassFlow write:
    sum(outlet) of phi = 0.1

surfaceFieldValue outMax write:
    max(outlet) of U = (1.412563 2.8525179e-06 0)
    max(outlet) of p = 0

Time = 3.05

Courant Number mean: 0.50271454 max: 0.70628062
DILUPBiCG:  Solving for Ux, Initial residual = 0.0013002504, Final residual = 2.7442017e-09, No Iterations 3
DILUPBiCG:  Solving for Uy, Initial residual = 0.0015305467, Final residual = 3.5000236e-09, No Iterations 3
GAMG:  Solving for p, Initial residual = 5.8958206e-05, Final residual = 7.6510466e-07, No Iterations 2
GAMG:  Solving for p, Initial residual = 7.6655146e-07, Final residual = 7.6655146e-07, No Iterations 0
time step continuity errors : sum local = 3.8898454e-09, global = 1.91007e-10, cumulative = -3.1080665e-08
ExecutionTime = 0.36 s  ClockTime = 1 s

surfaceFieldValue inMassFlow write:
    sum(inlet) of phi = -0.1

surfaceFieldValue outMassFlow write:
    sum(outlet) of phi = 0.1

surfaceFieldValue outMax write:
    max(outlet) of U = (1.4146134 2.7426726e-06 0)
    max(outlet) of p = 0

Time = 3.1

Courant Number mean: 0.50272277 max: 0.70730586
DILUPBiCG:  Solving for Ux, Initial residual = 0.001242152, Final residual = 2.6068009e-09, No Iterations 3
DILUPBiCG:  Solving for Uy, Initial residual = 0.0014696423, Final residual = 3.3651956e-09, No Iterations 3
GAMG:  Solving for p, Initial residual = 5.6666249e-05, Final residual = 7.2509152e-07, No Iterations 2
GAMG:  Solving for p, Initial residual = 7.2639942e-07, Final residual = 7.2639942e-07, No Iterations 0
time step continuity errors : sum local = 3.6795899e-09, global = 1.8427094e-10, cumulative = -3.0896394e-08
ExecutionTime = 0.36 s  ClockTime = 1 s

surfaceFieldValue inMassFlow write:
    sum(inlet) of phi = -0.1

surfaceFieldValue outMassFlow write:
    sum(outlet) of phi = 0.1

surfaceFieldValue outMax write:
    max(outlet) of U = (1.4165929 2.6377502e-06 0)
    max(outlet) of p = 0

Time = 3.15

Courant Number mean: 0.50273069 max: 0.70829566
DILUPBiCG:  Solving for Ux, Initial residual = 0.001186714, Final residual = 2.4777872e-09, No Iterations 3
DILUPBiCG:  Solving for Uy, Initial residual = 0.0014114126, Final residual = 3.2376295e-09, No Iterations 3
GAMG:  Solving for p, Initial residual = 5.4338241e-05, Final residual = 6.8999509e-07, No Iterations 2
GAMG:  Solving for p, Initial residual = 6.9118239e-07, Final residual = 6.9118239e-07, No Iterations 0
time step continuity errors : sum local = 3.4953033e-09, global = 1.7817151e-10, cumulative = -3.0718223e-08
ExecutionTime = 0.36 s  ClockTime = 1 s

surfaceFieldValue inMassFlow write:
    sum(inlet) of phi = -0.1

surfaceFieldValue outMassFlow write:
    sum(outlet) of phi = 0.1

surfaceFieldValue outMax write:
    max(outlet) of U = (1.4185039 2.5374679e-06 0)
    max(outlet) of p = 0

Time = 3.2

Courant Number mean: 0.50273832 max: 0.7092512
DILUPBiCG:  Solving for Ux, Initial residual = 0.0011338053, Final residual = 2.3566389e-09, No Iterations 3
DILUPBiCG:  Solving for Uy, Initial residual = 0.0013557196, Final residual = 3.1134788e-09, No Iterations 3
GAMG:  Solving for p, Initial residual = 5.2238996e-05, Final residual = 6.5767118e-07, No Iterations 2
GAMG:  Solving for p, Initial residual = 6.5875074e-07, Final residual = 6.5875074e-07, No Iterations 0
time step continuity errors : sum local = 3.3259475e-09, global = 1.6719378e-10, cumulative = -3.0551029e-08
ExecutionTime = 0.37 s  ClockTime = 1 s

surfaceFieldValue inMassFlow write:
    sum(inlet) of phi = -0.1

surfaceFieldValue outMassFlow write:
    sum(outlet) of phi = 0.1

surfaceFieldValue outMax write:
    max(outlet) of U = (1.4203486 2.4414799e-06 0)
    max(outlet) of p = 0

Time = 3.25

Courant Number mean: 0.50274567 max: 0.71017359
DILUPBiCG:  Solving for Ux, Initial residual = 0.0010833016, Final residual = 2.2429458e-09, No Iterations 3
DILUPBiCG:  Solving for Uy, Initial residual = 0.0013024315, Final residual = 2.9963232e-09, No Iterations 3
GAMG:  Solving for p, Initial residual = 5.0105292e-05, Final residual = 6.2473873e-07, No Iterations 2
GAMG:  Solving for p, Initial residual = 6.2571707e-07, Final residual = 6.2571707e-07, No Iterations 0
time step continuity errors : sum local = 3.1543256e-09, global = 1.6000993e-10, cumulative = -3.0391019e-08
ExecutionTime = 0.37 s  ClockTime = 1 s

surfaceFieldValue inMassFlow write:
    sum(inlet) of phi = -0.1

surfaceFieldValue outMassFlow write:
    sum(outlet) of phi = 0.1

surfaceFieldValue outMax write:
    max(outlet) of U = (1.4221293 2.3493428e-06 0)
    max(outlet) of p = 0

Time = 3.3

Courant Number mean: 0.50275276 max: 0.71106393
DILUPBiCG:  Solving for Ux, Initial residual = 0.0010350857, Final residual = 2.1431632e-09, No Iterations 3
DILUPBiCG:  Solving for Uy, Initial residual = 0.0012514304, Final residual = 2.8831997e-09, No Iterations 3
GAMG:  Solving for p, Initial residual = 4.8182445e-05, Final residual = 5.9341362e-07, No Iterations 2
GAMG:  Solving for p, Initial residual = 5.9430021e-07, Final residual = 5.9430021e-07, No Iterations 0
time step continuity errors : sum local = 2.9915708e-09, global = 1.5240339e-10, cumulative = -3.0238616e-08
ExecutionTime = 0.38 s  ClockTime = 1 s

surfaceFieldValue inMassFlow write:
    sum(inlet) of phi = -0.1

surfaceFieldValue outMassFlow write:
    sum(outlet) of phi = 0.1

surfaceFieldValue outMax write:
    max(outlet) of U = (1.4238479 2.2607787e-06 0)
    max(outlet) of p = 0

Time = 3.35

Courant Number mean: 0.50275958 max: 0.71192327
DILUPBiCG:  Solving for Ux, Initial residual = 0.00098904751, Final residual = 2.051465e-09, No Iterations 3
DILUPBiCG:  Solving for Uy, Initial residual = 0.0012025983, Final residual = 2.7745516e-09, No Iterations 3
GAMG:  Solving for p, Initial residual = 4.6238779e-05, Final residual = 5.6430479e-07, No Iterations 2
GAMG:  Solving for p, Initial residual = 5.6510912e-07, Final residual = 5.6510912e-07, No Iterations 0
time step continuity errors : sum local = 2.8406642e-09, global = 1.4533618e-10, cumulative = -3.009328e-08
ExecutionTime = 0.38 s  ClockTime = 1 s

surfaceFieldValue inMassFlow write:
    sum(inlet) of phi = -0.1

surfaceFieldValue outMassFlow write:
    sum(outlet) of phi = 0.1

surfaceFieldValue outMax write:
    max(outlet) of U = (1.4255066 2.1755593e-06 0)
    max(outlet) of p = 0

Time = 3.4

Courant Number mean: 0.50276615 max: 0.71275266
DILUPBiCG:  Solving for Ux, Initial residual = 0.00094508228, Final residual = 1.9634256e-09, No Iterations 3
DILUPBiCG:  Solving for Uy, Initial residual = 0.0011558306, Final residual = 2.6710128e-09, No Iterations 3
GAMG:  Solving for p, Initial residual = 4.44764e-05, Final residual = 5.37849e-07, No Iterations 2
GAMG:  Solving for p, Initial residual = 5.3858036e-07, Final residual = 5.3858036e-07, No Iterations 0
time step continuity errors : sum local = 2.7037106e-09, global = 1.4381135e-10, cumulative = -2.9949468e-08
ExecutionTime = 0.39 s  ClockTime = 1 s

surfaceFieldValue inMassFlow write:
    sum(inlet) of phi = -0.1

surfaceFieldValue outMassFlow write:
    sum(outlet) of phi = 0.1

surfaceFieldValue outMax write:
    max(outlet) of U = (1.4271074 2.0934525e-06 0)
    max(outlet) of p = 0

Time = 3.45

Courant Number mean: 0.50277248 max: 0.71355309
DILUPBiCG:  Solving for Ux, Initial residual = 0.00090309127, Final residual = 1.8792949e-09, No Iterations 3
DILUPBiCG:  Solving for Uy, Initial residual = 0.0011110263, Final residual = 2.5710529e-09, No Iterations 3
GAMG:  Solving for p, Initial residual = 4.2681158e-05, Final residual = 5.1407049e-07, No Iterations 2
GAMG:  Solving for p, Initial residual = 5.147374e-07, Final residual = 5.147374e-07, No Iterations 0
time step continuity errors : sum local = 2.5807394e-09, global = 1.2188668e-10, cumulative = -2.9827582e-08
ExecutionTime = 0.39 s  ClockTime = 1 s

surfaceFieldValue inMassFlow write:
    sum(inlet) of phi = -0.1

surfaceFieldValue outMassFlow write:
    sum(outlet) of phi = 0.1

surfaceFieldValue outMax write:
    max(outlet) of U = (1.4286523 2.0144195e-06 0)
    max(outlet) of p = 0

Time = 3.5

Courant Number mean: 0.50277858 max: 0.71432553
DILUPBiCG:  Solving for Ux, Initial residual = 0.00086298112, Final residual = 1.7986269e-09, No Iterations 3
DILUPBiCG:  Solving for Uy, Initial residual = 0.0010680916, Final residual = 2.4757678e-09, No Iterations 3
GAMG:  Solving for p, Initial residual = 4.1065537e-05, Final residual = 4.8936386e-07, No Iterations 2
GAMG:  Solving for p, Initial residual = 4.8996952e-07, Final residual = 4.8996952e-07, No Iterations 0
time step continuity errors : sum local = 2.4535879e-09, global = 1.2572399e-10, cumulative = -2.9701858e-08
ExecutionTime = 0.39 s  ClockTime = 1 s

surfaceFieldValue inMassFlow write:
    sum(inlet) of phi = -0.1

surfaceFieldValue outMassFlow write:
    sum(outlet) of phi = 0.1

surfaceFieldValue outMax write:
    max(outlet) of U = (1.430143 1.9380763e-06 0)
    max(outlet) of p = 0

Time = 3.55

Courant Number mean: 0.50278445 max: 0.71507093
DILUPBiCG:  Solving for Ux, Initial residual = 0.0008246631, Final residual = 1.7212638e-09, No Iterations 3
DILUPBiCG:  Solving for Uy, Initial residual = 0.0010269385, Final residual = 2.383862e-09, No Iterations 3
GAMG:  Solving for p, Initial residual = 3.9403945e-05, Final residual = 4.6461874e-07, No Iterations 2
GAMG:  Solving for p, Initial residual = 4.6516726e-07, Final residual = 4.6516726e-07, No Iterations 0
time step continuity errors : sum local = 2.3266989e-09, global = 1.1374117e-10, cumulative = -2.9588116e-08
ExecutionTime = 0.39 s  ClockTime = 1 s

surfaceFieldValue inMassFlow write:
    sum(inlet) of phi = -0.1

surfaceFieldValue outMassFlow write:
    sum(outlet) of phi = 0.1

surfaceFieldValue outMax write:
    max(outlet) of U = (1.4315815 1.8646649e-06 0)
    max(outlet) of p = 0

Time = 3.6

Courant Number mean: 0.50279011 max: 0.71579019
DILUPBiCG:  Solving for Ux, Initial residual = 0.00078805335, Final residual = 1.6471157e-09, No Iterations 3
DILUPBiCG:  Solving for Uy, Initial residual = 0.0009874807, Final residual = 2.2966676e-09, No Iterations 3
GAMG:  Solving for p, Initial residual = 3.7908561e-05, Final residual = 4.4412619e-07, No Iterations 2
GAMG:  Solving for p, Initial residual = 4.4462639e-07, Final residual = 4.4462639e-07, No Iterations 0
time step continuity errors : sum local = 2.2215082e-09, global = 1.1647989e-10, cumulative = -2.9471636e-08
ExecutionTime = 0.4 s  ClockTime = 1 s

surfaceFieldValue inMassFlow write:
    sum(inlet) of phi = -0.1

surfaceFieldValue outMassFlow write:
    sum(outlet) of phi = 0.1

surfaceFieldValue outMax write:
    max(outlet) of U = (1.4329695 1.7938551e-06 0)
    max(outlet) of p = 0

Time = 3.65

Courant Number mean: 0.50279557 max: 0.71648421
DILUPBiCG:  Solving for Ux, Initial residual = 0.00075307254, Final residual = 1.5760563e-09, No Iterations 3
DILUPBiCG:  Solving for Uy, Initial residual = 0.00094964418, Final residual = 2.2118763e-09, No Iterations 3
GAMG:  Solving for p, Initial residual = 3.6384114e-05, Final residual = 4.2489313e-07, No Iterations 2
GAMG:  Solving for p, Initial residual = 4.2534958e-07, Final residual = 4.2534958e-07, No Iterations 0
time step continuity errors : sum local = 2.1229632e-09, global = 1.1186872e-10, cumulative = -2.9359768e-08
ExecutionTime = 0.4 s  ClockTime = 1 s

surfaceFieldValue inMassFlow write:
    sum(inlet) of phi = -0.1

surfaceFieldValue outMassFlow write:
    sum(outlet) of phi = 0.1

surfaceFieldValue outMax write:
    max(outlet) of U = (1.4343087 1.7257602e-06 0)
    max(outlet) of p = 0

Time = 3.7

Courant Number mean: 0.50280083 max: 0.71715383
DILUPBiCG:  Solving for Ux, Initial residual = 0.00071964494, Final residual = 1.5078937e-09, No Iterations 3
DILUPBiCG:  Solving for Uy, Initial residual = 0.00091334823, Final residual = 2.1318713e-09, No Iterations 3
GAMG:  Solving for p, Initial residual = 3.500095e-05, Final residual = 4.0557228e-07, No Iterations 2
GAMG:  Solving for p, Initial residual = 4.0598785e-07, Final residual = 4.0598785e-07, No Iterations 0
time step continuity errors : sum local = 2.0242978e-09, global = 1.0706951e-10, cumulative = -2.9252698e-08
ExecutionTime = 0.4 s  ClockTime = 1 s

surfaceFieldValue inMassFlow write:
    sum(inlet) of phi = -0.1

surfaceFieldValue outMassFlow write:
    sum(outlet) of phi = 0.1

surfaceFieldValue outMax write:
    max(outlet) of U = (1.4356008 1.6602352e-06 0)
    max(outlet) of p = 0

Time = 3.75

Courant Number mean: 0.50280589 max: 0.7177999
DILUPBiCG:  Solving for Ux, Initial residual = 0.00068769913, Final residual = 1.4426079e-09, No Iterations 3
DILUPBiCG:  Solving for Uy, Initial residual = 0.00087852757, Final residual = 2.0543508e-09, No Iterations 3
GAMG:  Solving for p, Initial residual = 3.3611663e-05, Final residual = 3.8686502e-07, No Iterations 2
GAMG:  Solving for p, Initial residual = 3.8724307e-07, Final residual = 3.8724307e-07, No Iterations 0
time step continuity errors : sum local = 1.9289908e-09, global = 1.0283974e-10, cumulative = -2.9149858e-08
ExecutionTime = 0.4 s  ClockTime = 1 s

surfaceFieldValue inMassFlow write:
    sum(inlet) of phi = -0.1

surfaceFieldValue outMassFlow write:
    sum(outlet) of phi = 0.1

surfaceFieldValue outMax write:
    max(outlet) of U = (1.4368474 1.5972073e-06 0)
    max(outlet) of p = 0

Time = 3.8

Courant Number mean: 0.50281077 max: 0.71842322
DILUPBiCG:  Solving for Ux, Initial residual = 0.00065716706, Final residual = 1.3800051e-09, No Iterations 3
DILUPBiCG:  Solving for Uy, Initial residual = 0.00084511342, Final residual = 1.9794748e-09, No Iterations 3
GAMG:  Solving for p, Initial residual = 3.2329237e-05, Final residual = 3.7013404e-07, No Iterations 2
GAMG:  Solving for p, Initial residual = 3.7047899e-07, Final residual = 3.7047899e-07, No Iterations 0
time step continuity errors : sum local = 1.8438029e-09, global = 9.8917683e-11, cumulative = -2.9050941e-08
ExecutionTime = 0.41 s  ClockTime = 1 s

surfaceFieldValue inMassFlow write:
    sum(inlet) of phi = -0.1

surfaceFieldValue outMassFlow write:
    sum(outlet) of phi = 0.1

surfaceFieldValue outMax write:
    max(outlet) of U = (1.43805 1.5366317e-06 0)
    max(outlet) of p = 0

Time = 3.85

Courant Number mean: 0.50281548 max: 0.71902456
DILUPBiCG:  Solving for Ux, Initial residual = 0.00062798413, Final residual = 1.3200021e-09, No Iterations 3
DILUPBiCG:  Solving for Uy, Initial residual = 0.0008130434, Final residual = 1.9079261e-09, No Iterations 3
GAMG:  Solving for p, Initial residual = 3.1053309e-05, Final residual = 3.5433072e-07, No Iterations 2
GAMG:  Solving for p, Initial residual = 3.5464563e-07, Final residual = 3.5464563e-07, No Iterations 0
time step continuity errors : sum local = 1.763471e-09, global = 9.5319076e-11, cumulative = -2.8955622e-08
ExecutionTime = 0.41 s  ClockTime = 1 s

surfaceFieldValue inMassFlow write:
    sum(inlet) of phi = -0.1

surfaceFieldValue outMassFlow write:
    sum(outlet) of phi = 0.1

surfaceFieldValue outMax write:
    max(outlet) of U = (1.4392102 1.4784327e-06 0)
    max(outlet) of p = 0

Time = 3.9

Courant Number mean: 0.50282001 max: 0.71960468
DILUPBiCG:  Solving for Ux, Initial residual = 0.00060008898, Final residual = 1.2625369e-09, No Iterations 3
DILUPBiCG:  Solving for Uy, Initial residual = 0.00078225766, Final residual = 1.8385246e-09, No Iterations 3
GAMG:  Solving for p, Initial residual = 2.9864168e-05, Final residual = 3.3865428e-07, No Iterations 2
GAMG:  Solving for p, Initial residual = 3.3894124e-07, Final residual = 3.3894124e-07, No Iterations 0
time step continuity errors : sum local = 1.6839865e-09, global = 9.2806237e-11, cumulative = -2.8862816e-08
ExecutionTime = 0.41 s  ClockTime = 1 s

surfaceFieldValue inMassFlow write:
    sum(inlet) of phi = -0.1

surfaceFieldValue outMassFlow write:
    sum(outlet) of phi = 0.1

surfaceFieldValue outMax write:
    max(outlet) of U = (1.4403295 1.4225309e-06 0)
    max(outlet) of p = 0

Time = 3.95

Courant Number mean: 0.50282438 max: 0.72016431
DILUPBiCG:  Solving for Ux, Initial residual = 0.00057342324, Final residual = 1.2074356e-09, No Iterations 3
DILUPBiCG:  Solving for Uy, Initial residual = 0.00075269977, Final residual = 1.7717796e-09, No Iterations 3
GAMG:  Solving for p, Initial residual = 2.8692346e-05, Final residual = 3.2355097e-07, No Iterations 2
GAMG:  Solving for p, Initial residual = 3.2381235e-07, Final residual = 3.2381235e-07, No Iterations 0
time step continuity errors : sum local = 1.6075515e-09, global = 8.8995274e-11, cumulative = -2.877382e-08
ExecutionTime = 0.41 s  ClockTime = 1 s

surfaceFieldValue inMassFlow write:
    sum(inlet) of phi = -0.1

surfaceFieldValue outMassFlow write:
    sum(outlet) of phi = 0.1

surfaceFieldValue outMax write:
    max(outlet) of U = (1.4414091 1.3688629e-06 0)
    max(outlet) of p = 0

Time = 4

Courant Number mean: 0.50282859 max: 0.72070416
DILUPBiCG:  Solving for Ux, Initial residual = 0.00054793135, Final residual = 1.1546444e-09, No Iterations 3
DILUPBiCG:  Solving for Uy, Initial residual = 0.00072431518, Final residual = 1.7073876e-09, No Iterations 3
GAMG:  Solving for p, Initial residual = 2.7590327e-05, Final residual = 3.0984439e-07, No Iterations 2
GAMG:  Solving for p, Initial residual = 3.1008301e-07, Final residual = 3.1008301e-07, No Iterations 0
time step continuity errors : sum local = 1.5382354e-09, global = 8.5017649e-11, cumulative = -2.8688803e-08
ExecutionTime = 0.42 s  ClockTime = 1 s

surfaceFieldValue inMassFlow write:
    sum(inlet) of phi = -0.1

surfaceFieldValue outMassFlow write:
    sum(outlet) of phi = 0.1

surfaceFieldValue outMax write:
    max(outlet) of U = (1.4424506 1.3173307e-06 0)
    max(outlet) of p = 0

Time = 4.05

Courant Number mean: 0.50283264 max: 0.72122491
DILUPBiCG:  Solving for Ux, Initial residual = 0.00052356054, Final residual = 1.1040691e-09, No Iterations 3
DILUPBiCG:  Solving for Uy, Initial residual = 0.00069705389, Final residual = 1.6458409e-09, No Iterations 3
GAMG:  Solving for p, Initial residual = 2.6513661e-05, Final residual = 2.9696441e-07, No Iterations 2
GAMG:  Solving for p, Initial residual = 2.971824e-07, Final residual = 2.971824e-07, No Iterations 0
time step continuity errors : sum local = 1.4731827e-09, global = 8.1170142e-11, cumulative = -2.8607632e-08
ExecutionTime = 0.42 s  ClockTime = 1 s

surfaceFieldValue inMassFlow write:
    sum(inlet) of phi = -0.1

surfaceFieldValue outMassFlow write:
    sum(outlet) of phi = 0.1

surfaceFieldValue outMax write:
    max(outlet) of U = (1.4434552 1.2678422e-06 0)
    max(outlet) of p = 0

Time = 4.1

Courant Number mean: 0.50283655 max: 0.72172723
DILUPBiCG:  Solving for Ux, Initial residual = 0.0005002605, Final residual = 1.0556294e-09, No Iterations 3
DILUPBiCG:  Solving for Uy, Initial residual = 0.00067086711, Final residual = 1.58574e-09, No Iterations 3
GAMG:  Solving for p, Initial residual = 2.5492181e-05, Final residual = 2.8440598e-07, No Iterations 2
GAMG:  Solving for p, Initial residual = 2.8460494e-07, Final residual = 2.8460494e-07, No Iterations 0
time step continuity errors : sum local = 1.409871e-09, global = 8.2408692e-11, cumulative = -2.8525224e-08
ExecutionTime = 0.42 s  ClockTime = 1 s

surfaceFieldValue inMassFlow write:
    sum(inlet) of phi = -0.1

surfaceFieldValue outMassFlow write:
    sum(outlet) of phi = 0.1

surfaceFieldValue outMax write:
    max(outlet) of U = (1.4444242 1.2203062e-06 0)
    max(outlet) of p = 0

Time = 4.15

Courant Number mean: 0.50284032 max: 0.72221175
DILUPBiCG:  Solving for Ux, Initial residual = 0.00047798333, Final residual = 1.0091943e-09, No Iterations 3
DILUPBiCG:  Solving for Uy, Initial residual = 0.00064570896, Final residual = 1.5286125e-09, No Iterations 3
GAMG:  Solving for p, Initial residual = 2.4504918e-05, Final residual = 2.7253457e-07, No Iterations 2
GAMG:  Solving for p, Initial residual = 2.7271625e-07, Final residual = 2.7271625e-07, No Iterations 0
time step continuity errors : sum local = 1.3500983e-09, global = 7.7859361e-11, cumulative = -2.8447364e-08
ExecutionTime = 0.43 s  ClockTime = 1 s

surfaceFieldValue inMassFlow write:
    sum(inlet) of phi = -0.1

surfaceFieldValue outMassFlow write:
    sum(outlet) of phi = 0.1

surfaceFieldValue outMax write:
    max(outlet) of U = (1.4453589 1.1747138e-06 0)
    max(outlet) of p = 0

Time = 4.2

Courant Number mean: 0.50284395 max: 0.72267909
DILUPBiCG:  Solving for Ux, Initial residual = 0.00045668346, Final residual = 9.6475788e-10, No Iterations 3
DILUPBiCG:  Solving for Uy, Initial residual = 0.00062153501, Final residual = 1.4731549e-09, No Iterations 3
GAMG:  Solving for p, Initial residual = 2.3556851e-05, Final residual = 2.612646e-07, No Iterations 2
GAMG:  Solving for p, Initial residual = 2.6143055e-07, Final residual = 2.6143055e-07, No Iterations 0
time step continuity errors : sum local = 1.2934258e-09, global = 7.3915687e-11, cumulative = -2.8373449e-08
ExecutionTime = 0.43 s  ClockTime = 1 s

surfaceFieldValue inMassFlow write:
    sum(inlet) of phi = -0.1

surfaceFieldValue outMassFlow write:
    sum(outlet) of phi = 0.1

surfaceFieldValue outMax write:
    max(outlet) of U = (1.4462604 1.1309012e-06 0)
    max(outlet) of p = 0

Time = 4.25

Courant Number mean: 0.50284745 max: 0.72312985
DILUPBiCG:  Solving for Ux, Initial residual = 0.00043631745, Final residual = 9.2215184e-10, No Iterations 3
DILUPBiCG:  Solving for Uy, Initial residual = 0.00059830377, Final residual = 1.4195828e-09, No Iterations 3
GAMG:  Solving for p, Initial residual = 2.2648738e-05, Final residual = 2.5054517e-07, No Iterations 2
GAMG:  Solving for p, Initial residual = 2.5069676e-07, Final residual = 2.5069676e-07, No Iterations 0
time step continuity errors : sum local = 1.2395886e-09, global = 7.1903921e-11, cumulative = -2.8301545e-08
ExecutionTime = 0.43 s  ClockTime = 1 s

surfaceFieldValue inMassFlow write:
    sum(inlet) of phi = -0.1

surfaceFieldValue outMassFlow write:
    sum(outlet) of phi = 0.1

surfaceFieldValue outMax write:
    max(outlet) of U = (1.4471299 1.0888031e-06 0)
    max(outlet) of p = 0

Time = 4.3

Courant Number mean: 0.50285083 max: 0.72356461
DILUPBiCG:  Solving for Ux, Initial residual = 0.0004168438, Final residual = 8.8137849e-10, No Iterations 3
DILUPBiCG:  Solving for Uy, Initial residual = 0.00057597688, Final residual = 1.3683585e-09, No Iterations 3
GAMG:  Solving for p, Initial residual = 2.1768665e-05, Final residual = 2.404824e-07, No Iterations 2
GAMG:  Solving for p, Initial residual = 2.4062099e-07, Final residual = 2.4062099e-07, No Iterations 0
time step continuity errors : sum local = 1.1890997e-09, global = 6.9807809e-11, cumulative = -2.8231737e-08
ExecutionTime = 0.44 s  ClockTime = 1 s

surfaceFieldValue inMassFlow write:
    sum(inlet) of phi = -0.1

surfaceFieldValue outMassFlow write:
    sum(outlet) of phi = 0.1

surfaceFieldValue outMax write:
    max(outlet) of U = (1.4479685 1.0483712e-06 0)
    max(outlet) of p = 0

Time = 4.35

Courant Number mean: 0.50285408 max: 0.72398392
DILUPBiCG:  Solving for Ux, Initial residual = 0.0003982231, Final residual = 8.4234091e-10, No Iterations 3
DILUPBiCG:  Solving for Uy, Initial residual = 0.00055451479, Final residual = 1.3186669e-09, No Iterations 3
GAMG:  Solving for p, Initial residual = 2.0936025e-05, Final residual = 2.3060431e-07, No Iterations 2
GAMG:  Solving for p, Initial residual = 2.3073087e-07, Final residual = 2.3073087e-07, No Iterations 0
time step continuity errors : sum local = 1.1396147e-09, global = 6.7920046e-11, cumulative = -2.8163817e-08
ExecutionTime = 0.44 s  ClockTime = 1 s

surfaceFieldValue inMassFlow write:
    sum(inlet) of phi = -0.1

surfaceFieldValue outMassFlow write:
    sum(outlet) of phi = 0.1

surfaceFieldValue outMax write:
    max(outlet) of U = (1.4487773 1.0095219e-06 0)
    max(outlet) of p = 0

Time = 4.4

Courant Number mean: 0.50285721 max: 0.72438833
DILUPBiCG:  Solving for Ux, Initial residual = 0.00038041766, Final residual = 8.0495864e-10, No Iterations 3
DILUPBiCG:  Solving for Uy, Initial residual = 0.0005338826, Final residual = 1.2708974e-09, No Iterations 3
GAMG:  Solving for p, Initial residual = 2.0119638e-05, Final residual = 2.2146427e-07, No Iterations 2
GAMG:  Solving for p, Initial residual = 2.2158e-07, Final residual = 2.2158e-07, No Iterations 0
time step continuity errors : sum local = 1.0938599e-09, global = 6.6159692e-11, cumulative = -2.8097657e-08
ExecutionTime = 0.44 s  ClockTime = 1 s

surfaceFieldValue inMassFlow write:
    sum(inlet) of phi = -0.1

surfaceFieldValue outMassFlow write:
    sum(outlet) of phi = 0.1

surfaceFieldValue outMax write:
    max(outlet) of U = (1.4495573 9.7218573e-07 0)
    max(outlet) of p = 0

Time = 4.45

[...]
GAMG:  Solving for p, Initial residual = 1.3590625e-06, Final residual = 8.5290247e-08, No Iterations 1
GAMG:  Solving for p, Initial residual = 8.5290218e-08, Final residual = 8.5290218e-08, No Iterations 0
time step continuity errors : sum local = 4.1746648e-10, global = -1.71898e-11, cumulative = -2.6308864e-08
ExecutionTime = 1.17 s  ClockTime = 2 s

surfaceFieldValue inMassFlow write:
    sum(inlet) of phi = -0.1

surfaceFieldValue outMassFlow write:
    sum(outlet) of phi = 0.1

surfaceFieldValue outMax write:
    max(outlet) of U = (1.4701557 4.2969612e-05 0)
    max(outlet) of p = 0

Time = 18.95

Courant Number mean: 0.50293959 max: 0.73507843
DILUPBiCG:  Solving for Ux, Initial residual = 8.5944162e-09, Final residual = 8.5944162e-09, No Iterations 0
DILUPBiCG:  Solving for Uy, Initial residual = 3.0986856e-07, Final residual = 2.953754e-09, No Iterations 1
GAMG:  Solving for p, Initial residual = 8.9493529e-07, Final residual = 8.9493529e-07, No Iterations 0
GAMG:  Solving for p, Initial residual = 8.9493529e-07, Final residual = 8.9493529e-07, No Iterations 0
time step continuity errors : sum local = 4.3804021e-09, global = -1.1253067e-11, cumulative = -2.6320117e-08
ExecutionTime = 1.18 s  ClockTime = 2 s

surfaceFieldValue inMassFlow write:
    sum(inlet) of phi = -0.1

surfaceFieldValue outMassFlow write:
    sum(outlet) of phi = 0.1

surfaceFieldValue outMax write:
    max(outlet) of U = (1.4701557 4.2966293e-05 0)
    max(outlet) of p = 0

Time = 19

Courant Number mean: 0.50293959 max: 0.73507843
DILUPBiCG:  Solving for Ux, Initial residual = 1.3653593e-08, Final residual = 3.5980245e-10, No Iterations 1
DILUPBiCG:  Solving for Uy, Initial residual = 2.513804e-07, Final residual = 2.4837463e-09, No Iterations 1
GAMG:  Solving for p, Initial residual = 1.574596e-06, Final residual = 9.5508704e-08, No Iterations 1
GAMG:  Solving for p, Initial residual = 9.5508696e-08, Final residual = 9.5508696e-08, No Iterations 0
time step continuity errors : sum local = 4.6748253e-10, global = -5.3261285e-12, cumulative = -2.6325444e-08
ExecutionTime = 1.18 s  ClockTime = 2 s

surfaceFieldValue inMassFlow write:
    sum(inlet) of phi = -0.1

surfaceFieldValue outMassFlow write:
    sum(outlet) of phi = 0.1

surfaceFieldValue outMax write:
    max(outlet) of U = (1.4701557 4.2966875e-05 0)
    max(outlet) of p = 0

Time = 19.05

Courant Number mean: 0.50293959 max: 0.73507842
DILUPBiCG:  Solving for Ux, Initial residual = 9.3426905e-09, Final residual = 9.3426905e-09, No Iterations 0
DILUPBiCG:  Solving for Uy, Initial residual = 3.610405e-07, Final residual = 3.5730542e-09, No Iterations 1
GAMG:  Solving for p, Initial residual = 1.0480781e-06, Final residual = 5.9113148e-08, No Iterations 1
GAMG:  Solving for p, Initial residual = 5.911316e-08, Final residual = 5.911316e-08, No Iterations 0
time step continuity errors : sum local = 2.8933866e-10, global = -2.3802726e-12, cumulative = -2.6327824e-08
ExecutionTime = 1.18 s  ClockTime = 2 s

surfaceFieldValue inMassFlow write:
    sum(inlet) of phi = -0.1

surfaceFieldValue outMassFlow write:
    sum(outlet) of phi = 0.1

surfaceFieldValue outMax write:
    max(outlet) of U = (1.4701557 4.2966024e-05 0)
    max(outlet) of p = 0

Time = 19.1

Courant Number mean: 0.50293959 max: 0.73507842
DILUPBiCG:  Solving for Ux, Initial residual = 3.4607614e-09, Final residual = 3.4607614e-09, No Iterations 0
DILUPBiCG:  Solving for Uy, Initial residual = 1.0732314e-07, Final residual = 1.0027053e-09, No Iterations 1
GAMG:  Solving for p, Initial residual = 3.252965e-07, Final residual = 3.252965e-07, No Iterations 0
GAMG:  Solving for p, Initial residual = 3.252965e-07, Final residual = 3.252965e-07, No Iterations 0
time step continuity errors : sum local = 1.5922149e-09, global = 9.1420123e-14, cumulative = -2.6327732e-08
ExecutionTime = 1.19 s  ClockTime = 2 s

surfaceFieldValue inMassFlow write:
    sum(inlet) of phi = -0.1

surfaceFieldValue outMassFlow write:
    sum(outlet) of phi = 0.1

surfaceFieldValue outMax write:
    max(outlet) of U = (1.4701557 4.2965487e-05 0)
    max(outlet) of p = 0

Time = 19.15

Courant Number mean: 0.50293959 max: 0.73507843
DILUPBiCG:  Solving for Ux, Initial residual = 5.3897457e-09, Final residual = 5.3897457e-09, No Iterations 0
DILUPBiCG:  Solving for Uy, Initial residual = 8.8343897e-08, Final residual = 8.8711597e-10, No Iterations 1
GAMG:  Solving for p, Initial residual = 5.7621388e-07, Final residual = 5.7621388e-07, No Iterations 0
GAMG:  Solving for p, Initial residual = 5.7621388e-07, Final residual = 5.7621388e-07, No Iterations 0
time step continuity errors : sum local = 2.8203696e-09, global = 2.5985589e-12, cumulative = -2.6325134e-08
ExecutionTime = 1.19 s  ClockTime = 2 s

surfaceFieldValue inMassFlow write:
    sum(inlet) of phi = -0.1

surfaceFieldValue outMassFlow write:
    sum(outlet) of phi = 0.1

surfaceFieldValue outMax write:
    max(outlet) of U = (1.4701557 4.2964949e-05 0)
    max(outlet) of p = 0

Time = 19.2

Courant Number mean: 0.50293959 max: 0.73507843
DILUPBiCG:  Solving for Ux, Initial residual = 7.5542049e-09, Final residual = 7.5542049e-09, No Iterations 0
DILUPBiCG:  Solving for Uy, Initial residual = 7.2930792e-08, Final residual = 8.1089502e-10, No Iterations 1
GAMG:  Solving for p, Initial residual = 7.6818168e-07, Final residual = 7.6818168e-07, No Iterations 0
GAMG:  Solving for p, Initial residual = 7.6818168e-07, Final residual = 7.6818168e-07, No Iterations 0
time step continuity errors : sum local = 3.7599864e-09, global = 6.2430495e-12, cumulative = -2.6318891e-08
ExecutionTime = 1.19 s  ClockTime = 2 s

surfaceFieldValue inMassFlow write:
    sum(inlet) of phi = -0.1

surfaceFieldValue outMassFlow write:
    sum(outlet) of phi = 0.1

surfaceFieldValue outMax write:
    max(outlet) of U = (1.4701557 4.2964307e-05 0)
    max(outlet) of p = 0

Time = 19.25

Courant Number mean: 0.50293959 max: 0.73507843
DILUPBiCG:  Solving for Ux, Initial residual = 1.0030466e-08, Final residual = 3.9439727e-09, No Iterations 1
DILUPBiCG:  Solving for Uy, Initial residual = 6.0681835e-08, Final residual = 7.584379e-10, No Iterations 1
GAMG:  Solving for p, Initial residual = 5.7670713e-07, Final residual = 5.7670713e-07, No Iterations 0
GAMG:  Solving for p, Initial residual = 5.7670713e-07, Final residual = 5.7670713e-07, No Iterations 0
time step continuity errors : sum local = 2.8227839e-09, global = 5.673319e-12, cumulative = -2.6313217e-08
ExecutionTime = 1.19 s  ClockTime = 2 s

surfaceFieldValue inMassFlow write:
    sum(inlet) of phi = -0.1

surfaceFieldValue outMassFlow write:
    sum(outlet) of phi = 0.1

surfaceFieldValue outMax write:
    max(outlet) of U = (1.4701557 4.296354e-05 0)
    max(outlet) of p = 0

Time = 19.3

Courant Number mean: 0.50293959 max: 0.73507842
DILUPBiCG:  Solving for Ux, Initial residual = 7.7862133e-09, Final residual = 7.7862133e-09, No Iterations 0
DILUPBiCG:  Solving for Uy, Initial residual = 5.0062912e-08, Final residual = 7.2219488e-10, No Iterations 1
GAMG:  Solving for p, Initial residual = 5.8997255e-07, Final residual = 5.8997255e-07, No Iterations 0
GAMG:  Solving for p, Initial residual = 5.8997255e-07, Final residual = 5.8997255e-07, No Iterations 0
time step continuity errors : sum local = 2.8877137e-09, global = 1.7124748e-12, cumulative = -2.6311505e-08
ExecutionTime = 1.19 s  ClockTime = 2 s

surfaceFieldValue inMassFlow write:
    sum(inlet) of phi = -0.1

surfaceFieldValue outMassFlow write:
    sum(outlet) of phi = 0.1

surfaceFieldValue outMax write:
    max(outlet) of U = (1.4701557 4.2962717e-05 0)
    max(outlet) of p = 0

Time = 19.35

Courant Number mean: 0.50293959 max: 0.73507842
DILUPBiCG:  Solving for Ux, Initial residual = 1.020514e-08, Final residual = 2.3403115e-10, No Iterations 1
DILUPBiCG:  Solving for Uy, Initial residual = 4.1769213e-08, Final residual = 6.9759892e-10, No Iterations 1
GAMG:  Solving for p, Initial residual = 5.4209256e-07, Final residual = 5.4209256e-07, No Iterations 0
GAMG:  Solving for p, Initial residual = 5.4209256e-07, Final residual = 5.4209256e-07, No Iterations 0
time step continuity errors : sum local = 2.6533574e-09, global = -6.4928828e-12, cumulative = -2.6317998e-08
ExecutionTime = 1.2 s  ClockTime = 2 s

surfaceFieldValue inMassFlow write:
    sum(inlet) of phi = -0.1

surfaceFieldValue outMassFlow write:
    sum(outlet) of phi = 0.1

surfaceFieldValue outMax write:
    max(outlet) of U = (1.4701556 4.2961973e-05 0)
    max(outlet) of p = 0

Time = 19.4

Courant Number mean: 0.50293959 max: 0.73507842
DILUPBiCG:  Solving for Ux, Initial residual = 9.4763839e-09, Final residual = 9.4763839e-09, No Iterations 0
DILUPBiCG:  Solving for Uy, Initial residual = 3.5344397e-08, Final residual = 7.2585251e-10, No Iterations 1
GAMG:  Solving for p, Initial residual = 7.594412e-07, Final residual = 7.594412e-07, No Iterations 0
GAMG:  Solving for p, Initial residual = 7.594412e-07, Final residual = 7.594412e-07, No Iterations 0
time step continuity errors : sum local = 3.7172047e-09, global = -5.8787176e-12, cumulative = -2.6323877e-08
ExecutionTime = 1.2 s  ClockTime = 2 s

surfaceFieldValue inMassFlow write:
    sum(inlet) of phi = -0.1

surfaceFieldValue outMassFlow write:
    sum(outlet) of phi = 0.1

surfaceFieldValue outMax write:
    max(outlet) of U = (1.4701556 4.2961457e-05 0)
    max(outlet) of p = 0

Time = 19.45

Courant Number mean: 0.50293959 max: 0.73507842
DILUPBiCG:  Solving for Ux, Initial residual = 1.2620895e-08, Final residual = 3.0020864e-10, No Iterations 1
DILUPBiCG:  Solving for Uy, Initial residual = 2.9145154e-08, Final residual = 9.9086607e-10, No Iterations 1
GAMG:  Solving for p, Initial residual = 7.9963133e-07, Final residual = 7.9963133e-07, No Iterations 0
GAMG:  Solving for p, Initial residual = 7.9963133e-07, Final residual = 7.9963133e-07, No Iterations 0
time step continuity errors : sum local = 3.9139216e-09, global = 4.1457721e-11, cumulative = -2.6282419e-08
ExecutionTime = 1.2 s  ClockTime = 2 s

surfaceFieldValue inMassFlow write:
    sum(inlet) of phi = -0.1

surfaceFieldValue outMassFlow write:
    sum(outlet) of phi = 0.1

surfaceFieldValue outMax write:
    max(outlet) of U = (1.4701557 4.2961272e-05 0)
    max(outlet) of p = 0

Time = 19.5

Courant Number mean: 0.50293959 max: 0.73507844
DILUPBiCG:  Solving for Ux, Initial residual = 1.1619053e-08, Final residual = 1.7743274e-10, No Iterations 1
DILUPBiCG:  Solving for Uy, Initial residual = 2.5194106e-08, Final residual = 1.6034148e-09, No Iterations 1
GAMG:  Solving for p, Initial residual = 7.6472788e-07, Final residual = 7.6472788e-07, No Iterations 0
GAMG:  Solving for p, Initial residual = 7.6472788e-07, Final residual = 7.6472788e-07, No Iterations 0
time step continuity errors : sum local = 3.7430813e-09, global = 8.9960458e-11, cumulative = -2.6192458e-08
ExecutionTime = 1.2 s  ClockTime = 2 s

surfaceFieldValue inMassFlow write:
    sum(inlet) of phi = -0.1

surfaceFieldValue outMassFlow write:
    sum(outlet) of phi = 0.1

surfaceFieldValue outMax write:
    max(outlet) of U = (1.4701557 4.2961481e-05 0)
    max(outlet) of p = 0

Time = 19.55

Courant Number mean: 0.50293959 max: 0.73507845
DILUPBiCG:  Solving for Ux, Initial residual = 1.0666059e-08, Final residual = 2.7182635e-12, No Iterations 2
DILUPBiCG:  Solving for Uy, Initial residual = 2.0522061e-08, Final residual = 2.3196667e-10, No Iterations 1
GAMG:  Solving for p, Initial residual = 6.6266128e-07, Final residual = 6.6266128e-07, No Iterations 0
GAMG:  Solving for p, Initial residual = 6.6266128e-07, Final residual = 6.6266128e-07, No Iterations 0
time step continuity errors : sum local = 3.2435001e-09, global = 8.4887208e-11, cumulative = -2.6107571e-08
ExecutionTime = 1.2 s  ClockTime = 2 s

surfaceFieldValue inMassFlow write:
    sum(inlet) of phi = -0.1

surfaceFieldValue outMassFlow write:
    sum(outlet) of phi = 0.1

surfaceFieldValue outMax write:
    max(outlet) of U = (1.4701557 4.2961996e-05 0)
    max(outlet) of p = 0

Time = 19.6

Courant Number mean: 0.50293959 max: 0.73507845
DILUPBiCG:  Solving for Ux, Initial residual = 9.8221205e-09, Final residual = 9.8221205e-09, No Iterations 0
DILUPBiCG:  Solving for Uy, Initial residual = 1.7855765e-08, Final residual = 1.803796e-10, No Iterations 1
GAMG:  Solving for p, Initial residual = 7.9580712e-07, Final residual = 7.9580712e-07, No Iterations 0
GAMG:  Solving for p, Initial residual = 7.9580712e-07, Final residual = 7.9580712e-07, No Iterations 0
time step continuity errors : sum local = 3.8952038e-09, global = 5.818262e-11, cumulative = -2.6049389e-08
ExecutionTime = 1.21 s  ClockTime = 2 s

surfaceFieldValue inMassFlow write:
    sum(inlet) of phi = -0.1

surfaceFieldValue outMassFlow write:
    sum(outlet) of phi = 0.1

surfaceFieldValue outMax write:
    max(outlet) of U = (1.4701557 4.2962707e-05 0)
    max(outlet) of p = 0

Time = 19.65

Courant Number mean: 0.50293959 max: 0.73507843
DILUPBiCG:  Solving for Ux, Initial residual = 1.3104011e-08, Final residual = 2.1021265e-10, No Iterations 1
DILUPBiCG:  Solving for Uy, Initial residual = 1.4935435e-08, Final residual = 1.6661391e-10, No Iterations 1
GAMG:  Solving for p, Initial residual = 7.6312786e-07, Final residual = 7.6312786e-07, No Iterations 0
GAMG:  Solving for p, Initial residual = 7.6312786e-07, Final residual = 7.6312786e-07, No Iterations 0
time step continuity errors : sum local = 3.7352496e-09, global = -4.4533758e-11, cumulative = -2.6093922e-08
ExecutionTime = 1.21 s  ClockTime = 2 s

surfaceFieldValue inMassFlow write:
    sum(inlet) of phi = -0.1

surfaceFieldValue outMassFlow write:
    sum(outlet) of phi = 0.099999999

surfaceFieldValue outMax write:
    max(outlet) of U = (1.4701556 4.2963464e-05 0)
    max(outlet) of p = 0

Time = 19.7

Courant Number mean: 0.50293959 max: 0.73507839
DILUPBiCG:  Solving for Ux, Initial residual = 1.2043924e-08, Final residual = 8.7041205e-10, No Iterations 1
DILUPBiCG:  Solving for Uy, Initial residual = 1.2670302e-08, Final residual = 1.4962432e-10, No Iterations 1
GAMG:  Solving for p, Initial residual = 7.8108144e-07, Final residual = 7.8108144e-07, No Iterations 0
GAMG:  Solving for p, Initial residual = 7.8108144e-07, Final residual = 7.8108144e-07, No Iterations 0
time step continuity errors : sum local = 3.8231263e-09, global = -6.8358886e-11, cumulative = -2.6162281e-08
ExecutionTime = 1.21 s  ClockTime = 2 s

surfaceFieldValue inMassFlow write:
    sum(inlet) of phi = -0.1

surfaceFieldValue outMassFlow write:
    sum(outlet) of phi = 0.099999999

surfaceFieldValue outMax write:
    max(outlet) of U = (1.4701556 4.2964125e-05 0)
    max(outlet) of p = 0

Time = 19.75

Courant Number mean: 0.50293959 max: 0.7350784
DILUPBiCG:  Solving for Ux, Initial residual = 1.1656909e-08, Final residual = 3.2918305e-10, No Iterations 1
DILUPBiCG:  Solving for Uy, Initial residual = 1.0880298e-08, Final residual = 1.3366301e-10, No Iterations 1
GAMG:  Solving for p, Initial residual = 7.7354751e-07, Final residual = 7.7354751e-07, No Iterations 0
GAMG:  Solving for p, Initial residual = 7.7354751e-07, Final residual = 7.7354751e-07, No Iterations 0
time step continuity errors : sum local = 3.7862501e-09, global = 2.6709883e-11, cumulative = -2.6135571e-08
ExecutionTime = 1.21 s  ClockTime = 2 s

surfaceFieldValue inMassFlow write:
    sum(inlet) of phi = -0.1

surfaceFieldValue outMassFlow write:
    sum(outlet) of phi = 0.1

surfaceFieldValue outMax write:
    max(outlet) of U = (1.4701557 4.2964581e-05 0)
    max(outlet) of p = 0

Time = 19.8

Courant Number mean: 0.50293959 max: 0.73507845
DILUPBiCG:  Solving for Ux, Initial residual = 1.069145e-08, Final residual = 1.7267143e-10, No Iterations 1
DILUPBiCG:  Solving for Uy, Initial residual = 9.2669049e-09, Final residual = 9.2669049e-09, No Iterations 0
GAMG:  Solving for p, Initial residual = 7.1685068e-07, Final residual = 7.1685068e-07, No Iterations 0
GAMG:  Solving for p, Initial residual = 7.1685068e-07, Final residual = 7.1685068e-07, No Iterations 0
time step continuity errors : sum local = 3.5087387e-09, global = 1.5113171e-10, cumulative = -2.598444e-08
ExecutionTime = 1.21 s  ClockTime = 2 s

surfaceFieldValue inMassFlow write:
    sum(inlet) of phi = -0.1

surfaceFieldValue outMassFlow write:
    sum(outlet) of phi = 0.1

surfaceFieldValue outMax write:
    max(outlet) of U = (1.4701557 4.2964886e-05 0)
    max(outlet) of p = 0

Time = 19.85

Courant Number mean: 0.50293959 max: 0.73507848
DILUPBiCG:  Solving for Ux, Initial residual = 9.6891395e-09, Final residual = 9.6891395e-09, No Iterations 0
DILUPBiCG:  Solving for Uy, Initial residual = 9.1472113e-09, Final residual = 9.1472113e-09, No Iterations 0
GAMG:  Solving for p, Initial residual = 8.670624e-07, Final residual = 8.670624e-07, No Iterations 0
GAMG:  Solving for p, Initial residual = 8.670624e-07, Final residual = 8.670624e-07, No Iterations 0
time step continuity errors : sum local = 4.2439739e-09, global = 2.220136e-10, cumulative = -2.5762426e-08
ExecutionTime = 1.21 s  ClockTime = 2 s

surfaceFieldValue inMassFlow write:
    sum(inlet) of phi = -0.1

surfaceFieldValue outMassFlow write:
    sum(outlet) of phi = 0.1

surfaceFieldValue outMax write:
    max(outlet) of U = (1.4701558 4.2965092e-05 0)
    max(outlet) of p = 0

Time = 19.9

Courant Number mean: 0.50293959 max: 0.73507849
DILUPBiCG:  Solving for Ux, Initial residual = 1.338669e-08, Final residual = 5.5574263e-10, No Iterations 1
DILUPBiCG:  Solving for Uy, Initial residual = 8.986102e-09, Final residual = 8.986102e-09, No Iterations 0
GAMG:  Solving for p, Initial residual = 7.9418624e-07, Final residual = 7.9418624e-07, No Iterations 0
GAMG:  Solving for p, Initial residual = 7.9418624e-07, Final residual = 7.9418624e-07, No Iterations 0
time step continuity errors : sum local = 3.88727e-09, global = 1.3521196e-10, cumulative = -2.5627214e-08
ExecutionTime = 1.21 s  ClockTime = 2 s

surfaceFieldValue inMassFlow write:
    sum(inlet) of phi = -0.1

surfaceFieldValue outMassFlow write:
    sum(outlet) of phi = 0.1

surfaceFieldValue outMax write:
    max(outlet) of U = (1.4701557 4.2965142e-05 0)
    max(outlet) of p = 0

Time = 19.95

Courant Number mean: 0.50293959 max: 0.73507844
DILUPBiCG:  Solving for Ux, Initial residual = 1.2189298e-08, Final residual = 2.1913468e-10, No Iterations 1
DILUPBiCG:  Solving for Uy, Initial residual = 8.9772128e-09, Final residual = 8.9772128e-09, No Iterations 0
GAMG:  Solving for p, Initial residual = 7.4780868e-07, Final residual = 7.4780868e-07, No Iterations 0
GAMG:  Solving for p, Initial residual = 7.4780868e-07, Final residual = 7.4780868e-07, No Iterations 0
time step continuity errors : sum local = 3.6602675e-09, global = -3.4533632e-11, cumulative = -2.5661748e-08
ExecutionTime = 1.21 s  ClockTime = 2 s

surfaceFieldValue inMassFlow write:
    sum(inlet) of phi = -0.1

surfaceFieldValue outMassFlow write:
    sum(outlet) of phi = 0.099999999

surfaceFieldValue outMax write:
    max(outlet) of U = (1.4701556 4.2964991e-05 0)
    max(outlet) of p = 0

Time = 20

Courant Number mean: 0.5029396 max: 0.73507838
DILUPBiCG:  Solving for Ux, Initial residual = 1.1035682e-08, Final residual = 3.7423166e-10, No Iterations 1
DILUPBiCG:  Solving for Uy, Initial residual = 8.8353987e-09, Final residual = 8.8353987e-09, No Iterations 0
GAMG:  Solving for p, Initial residual = 7.3750835e-07, Final residual = 7.3750835e-07, No Iterations 0
GAMG:  Solving for p, Initial residual = 7.3750835e-07, Final residual = 7.3750835e-07, No Iterations 0
time step continuity errors : sum local = 3.6098508e-09, global = -1.0375231e-10, cumulative = -2.57655e-08
ExecutionTime = 1.22 s  ClockTime = 2 s

surfaceFieldValue inMassFlow write:
    sum(inlet) of phi = -0.1

surfaceFieldValue outMassFlow write:
    sum(outlet) of phi = 0.099999998

surfaceFieldValue outMax write:
    max(outlet) of U = (1.4701556 4.2964615e-05 0)
    max(outlet) of p = 0

End

