/*---------------------------------------------------------------------------*\
| =========                 |                                                 |
| \\      /  F ield         | OpenFOAM: The Open Source CFD Toolbox           |
|  \\    /   O peration     | Version:  4.x                                   |
|   \\  /    A nd           | Web:      www.OpenFOAM.org                      |
|    \\/     M anipulation  |                                                 |
\*---------------------------------------------------------------------------*/
Build  : 4.x-e964d879e2b3
Exec   : interFoam -parallel
Date   : Jun 26 2017
Time   : 13:10:07
Host   : "linux-ifxc"
PID    : 4330
Case   : /home/joegi/my_cases_course/40x/101programming/codeStream_BC/fillBox_BC
nProcs : 4
Slaves : 
3
(
"linux-ifxc.4331"
"linux-ifxc.4332"
"linux-ifxc.4333"
)

Pstream initialized with:
    floatTransfer      : 0
    nProcsSimpleSum    : 0
    commsType          : nonBlocking
    polling iterations : 0
sigFpe : Enabling floating point exception trapping (FOAM_SIGFPE).
fileModificationChecking : Monitoring run-time modified files using timeStampMaster
allowSystemOperations : Allowing user-supplied system call operations

// * * * * * * * * * * * * * * * * * * * * * * * * * * * * * * * * * * * * * //
Create time

Create mesh for time = 0


PIMPLE: Operating solver in PISO mode

Reading field p_rgh

Reading field U

Using dynamicCode for patch leftWall on field U at line 26 in "/home/joegi/my_cases_course/40x/101programming/codeStream_BC/fillBox_BC/processor0/0/U.boundaryField.leftWall"
Reading/calculating face flux field phi

Reading transportProperties

Using dynamicCode for patch leftWall on field alpha.water at line 26 in "/home/joegi/my_cases_course/40x/101programming/codeStream_BC/fillBox_BC/processor0/0/alpha.water.boundaryField.leftWall"
Selecting incompressible transport model Newtonian
Selecting incompressible transport model Newtonian
Selecting turbulence model type laminar

Reading g

Reading hRef
Calculating field g.h

No MRF models present

No finite volume options present

DICPCG:  Solving for pcorr, Initial residual = 0, Final residual = 0, No Iterations 0
time step continuity errors : sum local = 0, global = 0, cumulative = 0
Courant Number mean: 0 max: 0

Starting time loop

volRegion water_in_domain:all():
    total cells  = 125000
    total volume = 1



Courant Number mean: 0 max: 0
Interface Courant Number mean: 0 max: 0
deltaT = 0.0011904762
Time = 0.00119048

PIMPLE: iteration 1
smoothSolver:  Solving for alpha.water, Initial residual = 0, Final residual = 0, No Iterations 0
Phase-1 volume fraction = 0  Min(alpha.water) = 0  Max(alpha.water) = 1
MULES: Correcting alpha.water
MULES: Correcting alpha.water
Phase-1 volume fraction = 0  Min(alpha.water) = 0  Max(alpha.water) = 1
DICPCG:  Solving for p_rgh, Initial residual = 1, Final residual = 0.04402191, No Iterations 77
time step continuity errors : sum local = 2.096306e-06, global = -6.0993431e-09, cumulative = -6.0993431e-09
DICPCG:  Solving for p_rgh, Initial residual = 0.00067098423, Final residual = 3.1408565e-05, No Iterations 27
time step continuity errors : sum local = 9.8291584e-08, global = 5.6653491e-09, cumulative = -4.3399399e-10
DICPCG:  Solving for p_rgh, Initial residual = 3.1433358e-05, Final residual = 8.6250903e-08, No Iterations 70
time step continuity errors : sum local = 2.6975443e-10, global = 2.2981112e-11, cumulative = -4.1101288e-10
ExecutionTime = 1.13 s  ClockTime = 1 s

fieldMinMax minmaxdomain write:
    min(p) = -9.81 at location (0.53 1 0.07) on processor 2
    max(p) = 79.701789 at location (0.01 0.59 0.49) on processor 3
    min(p_rgh) = 0 at location (0.53 1 0.01) on processor 2
    max(p_rgh) = 6826.5575 at location (0 0.69 0.49) on processor 3
    min(U) = (0.00042727436 -0.00015136175 -0.00027591273) at location (0.01 0.01 0.01) on processor 0
    max(U) = (0.71673335 0.14765408 0.12014377) at location (0.03 0.63 0.53) on processor 3
    min(alpha.water) = 0 at location (0.01 0.01 0.01) on processor 0
    max(alpha.water) = 1 at location (0 0.51 0.41) on processor 0

volRegion water_in_domain write:
    volIntegrate() of alpha.water = 0

Courant Number mean: 0.0025835539 max: 0.10344694
Interface Courant Number mean: 0 max: 0
deltaT = 0.0013945578
Time = 0.00258503

PIMPLE: iteration 1
smoothSolver:  Solving for alpha.water, Initial residual = 1, Final residual = 3.092575e-11, No Iterations 4
Phase-1 volume fraction = 5.5782313e-05  Min(alpha.water) = 0  Max(alpha.water) = 1
MULES: Correcting alpha.water
MULES: Correcting alpha.water
Phase-1 volume fraction = 5.5782313e-05  Min(alpha.water) = -5.5918852e-09  Max(alpha.water) = 1
DICPCG:  Solving for p_rgh, Initial residual = 0.25929791, Final residual = 0.012360892, No Iterations 50
time step continuity errors : sum local = 6.9960452e-05, global = 7.631865e-06, cumulative = 7.631454e-06
DICPCG:  Solving for p_rgh, Initial residual = 0.027968372, Final residual = 0.0012403728, No Iterations 57
time step continuity errors : sum local = 4.1687915e-06, global = 2.803804e-07, cumulative = 7.9118344e-06
DICPCG:  Solving for p_rgh, Initial residual = 0.0020794752, Final residual = 8.4412289e-08, No Iterations 109
time step continuity errors : sum local = 2.5876775e-10, global = -8.7010088e-13, cumulative = 7.9118335e-06
ExecutionTime = 2.12 s  ClockTime = 2 s

fieldMinMax minmaxdomain write:
    min(p) = -18.070482 at location (0.01 0.71 0.51) on processor 3
    max(p) = 3.6833964 at location (0.03 0.59 0.49) on processor 3
    min(p_rgh) = -6.1153373 at location (0 0.73 0.51) on processor 3
    max(p_rgh) = 6761.9014 at location (0 0.69 0.43) on processor 3
    min(U) = (-0.073323687 -0.24939045 -0.41940998) at location (0.03 0.51 0.39) on processor 0
    max(U) = (0.79112485 0.16245916 0.04244399) at location (0.03 0.63 0.51) on processor 3
    min(alpha.water) = -5.5918852e-09 at location (0 0.75 0.43) on processor 3
    max(alpha.water) = 1 at location (0 0.51 0.41) on processor 0

volRegion water_in_domain write:
    volIntegrate() of alpha.water = 5.5782313e-05

Courant Number mean: 0.0030411178 max: 0.10981126
Interface Courant Number mean: 5.6798808e-05 max: 0.072844296
deltaT = 0.0016349988
Time = 0.00422003

PIMPLE: iteration 1
smoothSolver:  Solving for alpha.water, Initial residual = 0.22092612, Final residual = 6.186085e-10, No Iterations 3
Phase-1 volume fraction = 0.00012118227  Min(alpha.water) = -5.5918852e-09  Max(alpha.water) = 1
MULES: Correcting alpha.water
MULES: Correcting alpha.water
Phase-1 volume fraction = 0.00012118227  Min(alpha.water) = -1.5080985e-09  Max(alpha.water) = 1
DICPCG:  Solving for p_rgh, Initial residual = 0.35480272, Final residual = 0.016603524, No Iterations 1
time step continuity errors : sum local = 7.5187597e-05, global = -7.9921999e-12, cumulative = 7.9118255e-06
DICPCG:  Solving for p_rgh, Initial residual = 0.012098786, Final residual = 0.00052584093, No Iterations 11
time step continuity errors : sum local = 3.3549436e-06, global = 2.0329068e-07, cumulative = 8.1151162e-06
DICPCG:  Solving for p_rgh, Initial residual = 0.0010716111, Final residual = 9.2780751e-08, No Iterations 97
time step continuity errors : sum local = 5.8770222e-10, global = 1.2716913e-12, cumulative = 8.1151175e-06
ExecutionTime = 2.89 s  ClockTime = 2 s

fieldMinMax minmaxdomain write:
    min(p) = -14.188558 at location (0.01 0.71 0.49) on processor 3
    max(p) = 0.039759653 at location (0.17 0 0.49) on processor 0
    min(p_rgh) = -2.4323594 at location (0 0.73 0.49) on processor 3
    max(p_rgh) = 6768.4998 at location (0 0.69 0.41) on processor 3
    min(U) = (-0.09452962 -0.2711972 -0.30060562) at location (0.03 0.49 0.39) on processor 0
    max(U) = (0.71182708 0.012082921 0.12881472) at location (0.01 0.51 0.61) on processor 0
    min(alpha.water) = -1.5080985e-09 at location (0 0.61 0.65) on processor 3
    max(alpha.water) = 1 at location (0 0.51 0.41) on processor 0

volRegion water_in_domain write:
    volIntegrate() of alpha.water = 0.00012118227

Courant Number mean: 0.0035772793 max: 0.11955428
Interface Courant Number mean: 6.6829273e-05 max: 0.084072087
deltaT = 0.0019074986
Time = 0.00612753

PIMPLE: iteration 1
smoothSolver:  Solving for alpha.water, Initial residual = 0.13139556, Final residual = 1.1458372e-09, No Iterations 3
Phase-1 volume fraction = 0.00019748221  Min(alpha.water) = -1.5080985e-09  Max(alpha.water) = 1
MULES: Correcting alpha.water
MULES: Correcting alpha.water
Phase-1 volume fraction = 0.00019748221  Min(alpha.water) = -3.7561323e-10  Max(alpha.water) = 1
DICPCG:  Solving for p_rgh, Initial residual = 0.22412472, Final residual = 0.0097262566, No Iterations 1
time step continuity errors : sum local = 7.9472731e-05, global = -3.8668593e-10, cumulative = 8.1147308e-06
DICPCG:  Solving for p_rgh, Initial residual = 0.0080078569, Final residual = 0.00037152237, No Iterations 10
time step continuity errors : sum local = 3.8436455e-06, global = -1.7989511e-07, cumulative = 7.9348357e-06
DICPCG:  Solving for p_rgh, Initial residual = 0.00087446379, Final residual = 8.6418141e-08, No Iterations 96
time step continuity errors : sum local = 8.913089e-10, global = 5.132542e-12, cumulative = 7.9348408e-06
ExecutionTime = 3.66 s  ClockTime = 3 s

fieldMinMax minmaxdomain write:
    min(p) = -13.902627 at location (0.01 0.71 0.51) on processor 3
    max(p) = 0.052215806 at location (0.11 0 0.49) on processor 0
    min(p_rgh) = -2.2844372 at location (0 0.73 0.49) on processor 3
    max(p_rgh) = 6767.3253 at location (0 0.69 0.41) on processor 3
    min(U) = (-0.12817275 -0.28853096 -0.31945132) at location (0.03 0.49 0.39) on processor 0
    max(U) = (0.75978773 0.012674582 0.09419841) at location (0.01 0.51 0.61) on processor 0
    min(alpha.water) = -3.7561323e-10 at location (0 0.45 0.51) on processor 0
    max(alpha.water) = 1 at location (0 0.51 0.41) on processor 0

volRegion water_in_domain write:
    volIntegrate() of alpha.water = 0.00019748221

Courant Number mean: 0.004203397 max: 0.13944844
Interface Courant Number mean: 8.3423678e-05 max: 0.10623028
deltaT = 0.0021936234
Time = 0.00832115

PIMPLE: iteration 1
smoothSolver:  Solving for alpha.water, Initial residual = 0.095882215, Final residual = 1.8901092e-09, No Iterations 3
Phase-1 volume fraction = 0.00028522715  Min(alpha.water) = -3.7561323e-10  Max(alpha.water) = 1
MULES: Correcting alpha.water
MULES: Correcting alpha.water
Phase-1 volume fraction = 0.00028522715  Min(alpha.water) = 1.4499773e-265  Max(alpha.water) = 1
DICPCG:  Solving for p_rgh, Initial residual = 0.16886154, Final residual = 0.0076685151, No Iterations 1
time step continuity errors : sum local = 9.3871231e-05, global = 3.2649829e-09, cumulative = 7.9381058e-06
DICPCG:  Solving for p_rgh, Initial residual = 0.006660502, Final residual = 0.00030233216, No Iterations 11
time step continuity errors : sum local = 4.4761142e-06, global = -2.7987785e-07, cumulative = 7.658228e-06
DICPCG:  Solving for p_rgh, Initial residual = 0.00079100717, Final residual = 8.9851822e-08, No Iterations 95
time step continuity errors : sum local = 1.3277182e-09, global = -3.8857777e-12, cumulative = 7.6582241e-06
ExecutionTime = 4.44 s  ClockTime = 4 s

fieldMinMax minmaxdomain write:
    min(p) = -13.559329 at location (0 0.71 0.51) on processor 3
    max(p) = 1.8517166 at location (0 0.69 0.43) on processor 3
    min(p_rgh) = -2.5858565 at location (0 0.73 0.51) on processor 3
    max(p_rgh) = 6770.7517 at location (0 0.69 0.43) on processor 3
    min(U) = (-0.14245936 -0.30173506 -0.32688433) at location (0.03 0.49 0.39) on processor 0
    max(U) = (1.0700754 0.24142758 0.073802287) at location (0.03 0.69 0.55) on processor 3
    min(alpha.water) = 1.4499773e-265 at location (0.99 0.01 0.01) on processor 1
    max(alpha.water) = 1 at location (0 0.51 0.41) on processor 0

volRegion water_in_domain write:
    volIntegrate() of alpha.water = 0.00028522715

Courant Number mean: 0.0048922232 max: 0.15799215
Interface Courant Number mean: 0.00010418371 max: 0.14293214
deltaT = 0.0026049278
Time = 0.0109261

PIMPLE: iteration 1
smoothSolver:  Solving for alpha.water, Initial residual = 0.079506405, Final residual = 3.9146058e-09, No Iterations 3
Phase-1 volume fraction = 0.00038942425  Min(alpha.water) = 1.7485595e-258  Max(alpha.water) = 1
MULES: Correcting alpha.water
MULES: Correcting alpha.water
Phase-1 volume fraction = 0.00038942425  Min(alpha.water) = 1.7485595e-258  Max(alpha.water) = 1
DICPCG:  Solving for p_rgh, Initial residual = 0.14158398, Final residual = 0.0031018123, No Iterations 2
time step continuity errors : sum local = 5.552095e-05, global = 6.0224207e-09, cumulative = 7.6642465e-06
DICPCG:  Solving for p_rgh, Initial residual = 0.0027762892, Final residual = 0.00012600836, No Iterations 17
time step continuity errors : sum local = 2.6779498e-06, global = -3.1458742e-07, cumulative = 7.3496591e-06
DICPCG:  Solving for p_rgh, Initial residual = 0.00028538028, Final residual = 8.6081057e-08, No Iterations 90
time step continuity errors : sum local = 1.8266274e-09, global = 3.6616184e-11, cumulative = 7.3496957e-06
ExecutionTime = 5.2 s  ClockTime = 5 s

fieldMinMax minmaxdomain write:
    min(p) = -13.963474 at location (0 0.71 0.51) on processor 3
    max(p) = 13.357936 at location (0 0.69 0.43) on processor 3
    min(p_rgh) = -3.0557732 at location (0 0.73 0.51) on processor 3
    max(p_rgh) = 6782.2579 at location (0 0.69 0.43) on processor 3
    min(U) = (-0.24403187 -0.43508544 -0.52309527) at location (0.01 0.71 0.61) on processor 3
    max(U) = (1.3365528 0.085247556 0.16226107) at location (0.03 0.69 0.59) on processor 3
    min(alpha.water) = 1.7485595e-258 at location (0.99 0.01 0.01) on processor 1
    max(alpha.water) = 1 at location (0 0.51 0.41) on processor 0

volRegion water_in_domain write:
    volIntegrate() of alpha.water = 0.00038942425

Courant Number mean: 0.0059058898 max: 0.201759
Interface Courant Number mean: 0.00013211587 max: 0.201759
deltaT = 0.0030056859
Time = 0.0139318

PIMPLE: iteration 1
smoothSolver:  Solving for alpha.water, Initial residual = 0.067431463, Final residual = 7.5438591e-09, No Iterations 3
Phase-1 volume fraction = 0.00050965168  Min(alpha.water) = 8.5986483e-252  Max(alpha.water) = 1
MULES: Correcting alpha.water
MULES: Correcting alpha.water
Phase-1 volume fraction = 0.00050965168  Min(alpha.water) = -1.0051382e-12  Max(alpha.water) = 1
DICPCG:  Solving for p_rgh, Initial residual = 0.10898604, Final residual = 0.0032593019, No Iterations 3
time step continuity errors : sum local = 6.0488633e-05, global = 8.0695464e-09, cumulative = 7.3577652e-06
DICPCG:  Solving for p_rgh, Initial residual = 0.002993811, Final residual = 0.00014553539, No Iterations 20
time step continuity errors : sum local = 3.1734419e-06, global = -3.8227133e-07, cumulative = 6.9754939e-06
DICPCG:  Solving for p_rgh, Initial residual = 0.00027914493, Final residual = 9.8494443e-08, No Iterations 91
time step continuity errors : sum local = 2.143971e-09, global = 1.294835e-11, cumulative = 6.9755069e-06
ExecutionTime = 5.93 s  ClockTime = 6 s

fieldMinMax minmaxdomain write:
    min(p) = -15.747227 at location (0.01 0.51 0.45) on processor 0
    max(p) = 42.710253 at location (0 0.69 0.57) on processor 3
    min(p_rgh) = -5.0362339 at location (0 0.71 0.51) on processor 3
    max(p_rgh) = 6811.6103 at location (0 0.69 0.57) on processor 3
    min(U) = (-0.29927287 -0.56439306 -0.64425623) at location (0.01 0.71 0.61) on processor 3
    max(U) = (1.0721132 0.34799618 0.11170954) at location (0.05 0.69 0.55) on processor 3
    min(alpha.water) = -1.0051382e-12 at location (0 0.75 0.59) on processor 3
    max(alpha.water) = 1 at location (0 0.51 0.41) on processor 0

volRegion water_in_domain write:
    volIntegrate() of alpha.water = 0.00050965168

Courant Number mean: 0.0069438147 max: 0.26664911
Interface Courant Number mean: 0.00026129748 max: 0.26664911
deltaT = 0.0036068231
Time = 0.0175386

PIMPLE: iteration 1
smoothSolver:  Solving for alpha.water, Initial residual = 0.061766106, Final residual = 1.0775383e-10, No Iterations 4
Phase-1 volume fraction = 0.0006539246  Min(alpha.water) = -1.0051382e-12  Max(alpha.water) = 1
MULES: Correcting alpha.water
MULES: Correcting alpha.water
Phase-1 volume fraction = 0.0006539246  Min(alpha.water) = -7.7270215e-13  Max(alpha.water) = 1
DICPCG:  Solving for p_rgh, Initial residual = 0.12160973, Final residual = 0.0051565591, No Iterations 2
time step continuity errors : sum local = 0.00019009035, global = 1.2536883e-08, cumulative = 6.9880437e-06
DICPCG:  Solving for p_rgh, Initial residual = 0.0047611961, Final residual = 0.00023010834, No Iterations 16
time step continuity errors : sum local = 9.7182074e-06, global = -8.4931141e-07, cumulative = 6.1387323e-06
DICPCG:  Solving for p_rgh, Initial residual = 0.00059038425, Final residual = 9.1599931e-08, No Iterations 94
time step continuity errors : sum local = 3.8599224e-09, global = 1.0043839e-10, cumulative = 6.1388328e-06
ExecutionTime = 6.61 s  ClockTime = 6 s

fieldMinMax minmaxdomain write:
    min(p) = -27.972306 at location (0.01 0.51 0.47) on processor 0
    max(p) = 64.892442 at location (0 0.69 0.57) on processor 3
    min(p_rgh) = -3.0671875 at location (0 0.71 0.51) on processor 3
    max(p_rgh) = 6833.7924 at location (0 0.69 0.57) on processor 3
    min(U) = (-0.32027424 -0.72861585 -0.70890154) at location (0.01 0.71 0.61) on processor 3
    max(U) = (1.1006369 0.12789458 0.20442696) at location (0.05 0.69 0.59) on processor 3
    min(alpha.water) = -7.7270215e-13 at location (0 0.73 0.55) on processor 3
    max(alpha.water) = 1 at location (0 0.51 0.41) on processor 0

volRegion water_in_domain write:
    volIntegrate() of alpha.water = 0.0006539246

Courant Number mean: 0.0085048572 max: 0.32001606
Interface Courant Number mean: 0.00041161129 max: 0.32001606
deltaT = 0.004057676
Time = 0.0215963

PIMPLE: iteration 1
smoothSolver:  Solving for alpha.water, Initial residual = 0.056331629, Final residual = 2.7163246e-10, No Iterations 4
Phase-1 volume fraction = 0.00081623164  Min(alpha.water) = -7.7270215e-13  Max(alpha.water) = 1
MULES: Correcting alpha.water
MULES: Correcting alpha.water
Phase-1 volume fraction = 0.00081623164  Min(alpha.water) = -8.7887487e-12  Max(alpha.water) = 1
DICPCG:  Solving for p_rgh, Initial residual = 0.11313558, Final residual = 0.0043321034, No Iterations 2
time step continuity errors : sum local = 0.00024065756, global = 2.2118146e-08, cumulative = 6.1609509e-06
DICPCG:  Solving for p_rgh, Initial residual = 0.0040072707, Final residual = 0.00019343493, No Iterations 16
time step continuity errors : sum local = 1.2530184e-05, global = -1.0924218e-06, cumulative = 5.0685291e-06
DICPCG:  Solving for p_rgh, Initial residual = 0.00056316697, Final residual = 8.9912438e-08, No Iterations 93
time step continuity errors : sum local = 5.8141795e-09, global = 9.7291426e-11, cumulative = 5.0686264e-06
ExecutionTime = 7.29 s  ClockTime = 7 s

fieldMinMax minmaxdomain write:
    min(p) = -36.806772 at location (0.01 0.51 0.47) on processor 0
    max(p) = 74.832825 at location (0 0.69 0.43) on processor 3
    min(p_rgh) = -2.4836005 at location (0 0.71 0.51) on processor 3
    max(p_rgh) = 6843.7328 at location (0 0.69 0.43) on processor 3
    min(U) = (-0.12809669 -0.10990962 -0.33182547) at location (0.05 0.49 0.37) on processor 0
    max(U) = (0.8941472 0.11328578 0.097241458) at location (0.07 0.65 0.53) on processor 3
    min(alpha.water) = -8.7887487e-12 at location (0 0.67 0.65) on processor 3
    max(alpha.water) = 1 at location (0 0.51 0.41) on processor 0

volRegion water_in_domain write:
    volIntegrate() of alpha.water = 0.00081623164

Courant Number mean: 0.0097985757 max: 0.34817165
Interface Courant Number mean: 0.00047459444 max: 0.34817165
deltaT = 0.0047339554
Time = 0.0263302

PIMPLE: iteration 1
smoothSolver:  Solving for alpha.water, Initial residual = 0.055221446, Final residual = 9.0531914e-10, No Iterations 4
Phase-1 volume fraction = 0.0010055899  Min(alpha.water) = -8.7887487e-12  Max(alpha.water) = 1
MULES: Correcting alpha.water
MULES: Correcting alpha.water
Phase-1 volume fraction = 0.0010055899  Min(alpha.water) = -5.3667768e-08  Max(alpha.water) = 1
DICPCG:  Solving for p_rgh, Initial residual = 0.094405694, Final residual = 0.0039551994, No Iterations 2
time step continuity errors : sum local = 0.00034434937, global = 3.3241353e-08, cumulative = 5.1018677e-06
DICPCG:  Solving for p_rgh, Initial residual = 0.0038101773, Final residual = 0.00017861528, No Iterations 16
time step continuity errors : sum local = 1.7852857e-05, global = -1.8775482e-06, cumulative = 3.2243196e-06
DICPCG:  Solving for p_rgh, Initial residual = 0.00060487413, Final residual = 8.9372363e-08, No Iterations 93
time step continuity errors : sum local = 8.9227232e-09, global = 1.4221066e-10, cumulative = 3.2244618e-06
ExecutionTime = 7.99 s  ClockTime = 8 s

fieldMinMax minmaxdomain write:
    min(p) = -45.269455 at location (0.01 0.51 0.49) on processor 0
    max(p) = 81.122324 at location (0 0.69 0.43) on processor 3
    min(p_rgh) = -2.0493302 at location (0.03 0.73 0.49) on processor 3
    max(p_rgh) = 6850.0223 at location (0 0.69 0.43) on processor 3
    min(U) = (-0.28084359 -1.1939616 -0.79278344) at location (0.01 0.71 0.61) on processor 3
    max(U) = (0.98058269 0.16067449 0.13594152) at location (0.07 0.69 0.57) on processor 3
    min(alpha.water) = -5.3667768e-08 at location (0 0.47 0.59) on processor 0
    max(alpha.water) = 1 at location (0 0.51 0.41) on processor 0

volRegion water_in_domain write:
    volIntegrate() of alpha.water = 0.0010055899

Courant Number mean: 0.011789479 max: 0.40837677
Interface Courant Number mean: 0.00057308943 max: 0.40837677
deltaT = 0.0047339554
Time = 0.0310642

PIMPLE: iteration 1
smoothSolver:  Solving for alpha.water, Initial residual = 0.04662861, Final residual = 1.133398e-09, No Iterations 4
Phase-1 volume fraction = 0.0011949481  Min(alpha.water) = -5.3667768e-08  Max(alpha.water) = 1
MULES: Correcting alpha.water
MULES: Correcting alpha.water
Phase-1 volume fraction = 0.0011949481  Min(alpha.water) = -2.4647937e-07  Max(alpha.water) = 1
DICPCG:  Solving for p_rgh, Initial residual = 0.066788534, Final residual = 0.0018739599, No Iterations 3
time step continuity errors : sum local = 0.00018906384, global = 4.1643308e-08, cumulative = 3.2661051e-06
DICPCG:  Solving for p_rgh, Initial residual = 0.0018467178, Final residual = 8.5537575e-05, No Iterations 19
time step continuity errors : sum local = 9.5973762e-06, global = -9.9656572e-07, cumulative = 2.2695393e-06
DICPCG:  Solving for p_rgh, Initial residual = 0.00023709239, Final residual = 9.2502015e-08, No Iterations 88
time step continuity errors : sum local = 1.0366861e-08, global = 1.2447795e-11, cumulative = 2.2695518e-06
ExecutionTime = 8.67 s  ClockTime = 9 s

fieldMinMax minmaxdomain write:
    min(p) = -50.490326 at location (0 0.51 0.49) on processor 0
    max(p) = 84.87283 at location (0 0.69 0.43) on processor 3
    min(p_rgh) = -3.5903195 at location (0.03 0.71 0.49) on processor 3
    max(p_rgh) = 6853.7728 at location (0 0.69 0.43) on processor 3
    min(U) = (-0.25280473 -0.089723449 -0.343205) at location (0.05 0.49 0.37) on processor 0
    max(U) = (0.80902213 0.13308332 0.10267162) at location (0.09 0.65 0.53) on processor 3
    min(alpha.water) = -2.4647937e-07 at location (0 0.47 0.59) on processor 0
    max(alpha.water) = 1 at location (0.01 0.63 0.43) on processor 3

volRegion water_in_domain write:
    volIntegrate() of alpha.water = 0.0011949481

Courant Number mean: 0.012157751 max: 0.47607458
Interface Courant Number mean: 0.0006669235 max: 0.47607458
deltaT = 0.0047339554
Time = 0.0357981

PIMPLE: iteration 1
smoothSolver:  Solving for alpha.water, Initial residual = 0.039397037, Final residual = 1.4079608e-09, No Iterations 4
Phase-1 volume fraction = 0.0013843063  Min(alpha.water) = -2.4647937e-07  Max(alpha.water) = 1
MULES: Correcting alpha.water
MULES: Correcting alpha.water
Phase-1 volume fraction = 0.0013843063  Min(alpha.water) = -1.6331472e-06  Max(alpha.water) = 1
DICPCG:  Solving for p_rgh, Initial residual = 0.060549531, Final residual = 0.0016254351, No Iterations 3
time step continuity errors : sum local = 0.00020700592, global = 2.6152697e-08, cumulative = 2.2957045e-06
DICPCG:  Solving for p_rgh, Initial residual = 0.0016336625, Final residual = 8.0617211e-05, No Iterations 19
time step continuity errors : sum local = 1.1151916e-05, global = -1.0302004e-06, cumulative = 1.2655041e-06
DICPCG:  Solving for p_rgh, Initial residual = 0.000220246, Final residual = 9.952748e-08, No Iterations 87
time step continuity errors : sum local = 1.375406e-08, global = -4.4021269e-11, cumulative = 1.2654601e-06
ExecutionTime = 9.36 s  ClockTime = 10 s

fieldMinMax minmaxdomain write:
    min(p) = -55.613507 at location (0 0.51 0.51) on processor 0
    max(p) = 86.413389 at location (0 0.69 0.43) on processor 3
    min(p_rgh) = -2.141704 at location (0.03 0.71 0.39) on processor 3
    max(p_rgh) = 6855.3134 at location (0 0.69 0.43) on processor 3
    min(U) = (-0.13083453 -0.13066344 -0.39967881) at location (0.07 0.49 0.37) on processor 0
    max(U) = (0.79139636 0.16097661 0.074199725) at location (0.09 0.67 0.53) on processor 3
    min(alpha.water) = -1.6331472e-06 at location (0 0.47 0.59) on processor 0
    max(alpha.water) = 1 at location (0.01 0.51 0.51) on processor 0

volRegion water_in_domain write:
    volIntegrate() of alpha.water = 0.0013843063

Courant Number mean: 0.012539086 max: 0.49612784
Interface Courant Number mean: 0.00074636024 max: 0.49612784
deltaT = 0.0047339554
Time = 0.0405321

PIMPLE: iteration 1
smoothSolver:  Solving for alpha.water, Initial residual = 0.034143771, Final residual = 1.6848134e-09, No Iterations 4
Phase-1 volume fraction = 0.0015736645  Min(alpha.water) = -1.6331472e-06  Max(alpha.water) = 1
MULES: Correcting alpha.water
MULES: Correcting alpha.water
Phase-1 volume fraction = 0.0015736645  Min(alpha.water) = -1.6501326e-06  Max(alpha.water) = 1
DICPCG:  Solving for p_rgh, Initial residual = 0.05382235, Final residual = 0.0026449122, No Iterations 2
time step continuity errors : sum local = 0.00037515156, global = 2.4588174e-08, cumulative = 1.2900482e-06
DICPCG:  Solving for p_rgh, Initial residual = 0.0026452994, Final residual = 0.00012541728, No Iterations 15
time step continuity errors : sum local = 1.9255358e-05, global = -1.1980294e-06, cumulative = 9.201882e-08
DICPCG:  Solving for p_rgh, Initial residual = 0.00036785321, Final residual = 9.7299418e-08, No Iterations 89
time step continuity errors : sum local = 1.4953881e-08, global = 1.7077012e-10, cumulative = 9.218959e-08
ExecutionTime = 10.02 s  ClockTime = 10 s

fieldMinMax minmaxdomain write:
    min(p) = -60.576665 at location (0 0.51 0.49) on processor 0
    max(p) = 87.537005 at location (0 0.69 0.43) on processor 3
    min(p_rgh) = -2.3484935 at location (0.03 0.49 0.39) on processor 0
    max(p_rgh) = 6856.437 at location (0 0.69 0.43) on processor 3
    min(U) = (-0.18439878 -0.13454777 -0.4288801) at location (0.07 0.49 0.37) on processor 0
    max(U) = (0.82902539 0.14733965 0.12766065) at location (0.09 0.69 0.57) on processor 3
    min(alpha.water) = -1.6501326e-06 at location (0 0.47 0.59) on processor 0
    max(alpha.water) = 1 at location (0.01 0.51 0.51) on processor 0

volRegion water_in_domain write:
    volIntegrate() of alpha.water = 0.0015736645

Courant Number mean: 0.012875239 max: 0.49300622
Interface Courant Number mean: 0.00075946878 max: 0.49300622
deltaT = 0.0047339554
Time = 0.045266

PIMPLE: iteration 1
smoothSolver:  Solving for alpha.water, Initial residual = 0.030450502, Final residual = 1.9733134e-09, No Iterations 4
Phase-1 volume fraction = 0.0017630227  Min(alpha.water) = -1.6501326e-06  Max(alpha.water) = 1
MULES: Correcting alpha.water
MULES: Correcting alpha.water
Phase-1 volume fraction = 0.0017630227  Min(alpha.water) = -5.5060554e-06  Max(alpha.water) = 1
DICPCG:  Solving for p_rgh, Initial residual = 0.044241784, Final residual = 0.0020821377, No Iterations 2
time step continuity errors : sum local = 0.00032845557, global = 2.6193142e-08, cumulative = 1.1838273e-07
DICPCG:  Solving for p_rgh, Initial residual = 0.0021135755, Final residual = 9.779057e-05, No Iterations 15
time step continuity errors : sum local = 1.6506384e-05, global = -1.1681917e-06, cumulative = -1.049809e-06
DICPCG:  Solving for p_rgh, Initial residual = 0.00030459591, Final residual = 8.2071399e-08, No Iterations 89
time step continuity errors : sum local = 1.3876956e-08, global = 1.7013273e-10, cumulative = -1.0496388e-06
ExecutionTime = 10.68 s  ClockTime = 11 s

fieldMinMax minmaxdomain write:
    min(p) = -65.261067 at location (0 0.51 0.49) on processor 0
    max(p) = 88.161463 at location (0 0.69 0.43) on processor 3
    min(p_rgh) = -2.061697 at location (0.03 0.49 0.39) on processor 0
    max(p_rgh) = 6857.0615 at location (0 0.69 0.43) on processor 3
    min(U) = (-0.22258212 -0.15050983 -0.43171769) at location (0.07 0.49 0.37) on processor 0
    max(U) = (0.41577163 0.30729548 0.23279086) at location (0.13 0.67 0.57) on processor 3
    min(alpha.water) = -5.5060554e-06 at location (0 0.47 0.59) on processor 0
    max(alpha.water) = 1 at location (0.01 0.51 0.51) on processor 0

volRegion water_in_domain write:
    volIntegrate() of alpha.water = 0.0017630227

Courant Number mean: 0.013212297 max: 0.52277903
Interface Courant Number mean: 0.00082282208 max: 0.52277903
deltaT = 0.0047339554
Time = 0.05

PIMPLE: iteration 1
smoothSolver:  Solving for alpha.water, Initial residual = 0.027503951, Final residual = 2.2743093e-09, No Iterations 4
Phase-1 volume fraction = 0.0019523809  Min(alpha.water) = -5.5060554e-06  Max(alpha.water) = 1
MULES: Correcting alpha.water
MULES: Correcting alpha.water
Phase-1 volume fraction = 0.0019523809  Min(alpha.water) = -1.0594956e-05  Max(alpha.water) = 1
DICPCG:  Solving for p_rgh, Initial residual = 0.034159386, Final residual = 0.0016880382, No Iterations 2
time step continuity errors : sum local = 0.00029100483, global = 2.3642772e-08, cumulative = -1.0259961e-06
DICPCG:  Solving for p_rgh, Initial residual = 0.0017468552, Final residual = 8.3895335e-05, No Iterations 15
time step continuity errors : sum local = 1.5285962e-05, global = -1.3848741e-06, cumulative = -2.4108702e-06
DICPCG:  Solving for p_rgh, Initial residual = 0.00027469721, Final residual = 9.1159301e-08, No Iterations 88
time step continuity errors : sum local = 1.6640679e-08, global = 1.1282767e-11, cumulative = -2.4108589e-06
ExecutionTime = 11.6 s  ClockTime = 12 s

fieldMinMax minmaxdomain write:
    min(p) = -69.176199 at location (0 0.51 0.49) on processor 0
    max(p) = 88.272561 at location (0 0.69 0.43) on processor 3
    min(p_rgh) = -2.2475956 at location (0.05 0.71 0.51) on processor 3
    max(p_rgh) = 6857.1726 at location (0 0.69 0.43) on processor 3
    min(U) = (-0.26322389 -0.15737306 -0.4108552) at location (0.07 0.49 0.37) on processor 0
    max(U) = (0.43783479 0.32717499 0.2412057) at location (0.13 0.67 0.57) on processor 3
    min(alpha.water) = -1.0594956e-05 at location (0 0.47 0.59) on processor 0
    max(alpha.water) = 1 at location (0.01 0.51 0.51) on processor 0

volRegion water_in_domain write:
    volIntegrate() of alpha.water = 0.0019523809

Courant Number mean: 0.013587911 max: 0.53813125
Interface Courant Number mean: 0.0010475671 max: 0.53813125
deltaT = 0.0055555556
Time = 0.0555556

PIMPLE: iteration 1
smoothSolver:  Solving for alpha.water, Initial residual = 0.029407238, Final residual = 7.7310731e-09, No Iterations 4
Phase-1 volume fraction = 0.002174603  Min(alpha.water) = -1.0594956e-05  Max(alpha.water) = 1
MULES: Correcting alpha.water
MULES: Correcting alpha.water
Phase-1 volume fraction = 0.002174603  Min(alpha.water) = -3.4769963e-06  Max(alpha.water) = 1
DICPCG:  Solving for p_rgh, Initial residual = 0.032193191, Final residual = 0.0012213077, No Iterations 3
time step continuity errors : sum local = 0.00029911072, global = 3.6316675e-08, cumulative = -2.3745422e-06
DICPCG:  Solving for p_rgh, Initial residual = 0.0012740712, Final residual = 5.7000129e-05, No Iterations 18
time step continuity errors : sum local = 1.4734528e-05, global = -2.3071178e-06, cumulative = -4.68166e-06
DICPCG:  Solving for p_rgh, Initial residual = 0.00016966279, Final residual = 9.4851655e-08, No Iterations 86
time step continuity errors : sum local = 2.4521316e-08, global = -4.4926814e-10, cumulative = -4.6821093e-06
ExecutionTime = 12.27 s  ClockTime = 13 s

fieldMinMax minmaxdomain write:
    min(p) = -73.193009 at location (0 0.51 0.49) on processor 0
    max(p) = 88.306961 at location (0 0.69 0.43) on processor 3
    min(p_rgh) = -2.39804 at location (0.03 0.47 0.51) on processor 0
    max(p_rgh) = 6857.207 at location (0 0.69 0.43) on processor 3
    min(U) = (-0.13056648 -0.15376187 -0.47887228) at location (0.09 0.49 0.37) on processor 0
    max(U) = (0.60958752 0.25033338 0.18035832) at location (0.13 0.65 0.55) on processor 3
    min(alpha.water) = -3.4769963e-06 at location (0 0.47 0.59) on processor 0
    max(alpha.water) = 1 at location (0.01 0.51 0.47) on processor 0

volRegion water_in_domain write:
    volIntegrate() of alpha.water = 0.002174603

Courant Number mean: 0.0165915 max: 0.63918763
Interface Courant Number mean: 0.0011259934 max: 0.63918763
deltaT = 0.0063492063
Time = 0.0619048

PIMPLE: iteration 1
smoothSolver:  Solving for alpha.water, Initial residual = 0.030354579, Final residual = 3.5300377e-10, No Iterations 5
Phase-1 volume fraction = 0.0024285713  Min(alpha.water) = -3.4769963e-06  Max(alpha.water) = 1
MULES: Correcting alpha.water
MULES: Correcting alpha.water
Phase-1 volume fraction = 0.0024285713  Min(alpha.water) = -3.2877604e-06  Max(alpha.water) = 1
DICPCG:  Solving for p_rgh, Initial residual = 0.031501599, Final residual = 0.0012408191, No Iterations 3
time step continuity errors : sum local = 0.00041179258, global = 5.8519391e-08, cumulative = -4.6235899e-06
DICPCG:  Solving for p_rgh, Initial residual = 0.0012913788, Final residual = 5.8990211e-05, No Iterations 17
time step continuity errors : sum local = 2.0737695e-05, global = -1.6008515e-06, cumulative = -6.2244413e-06
DICPCG:  Solving for p_rgh, Initial residual = 0.00018032575, Final residual = 9.3713663e-08, No Iterations 86
time step continuity errors : sum local = 3.2966273e-08, global = -6.9461984e-10, cumulative = -6.2251359e-06
ExecutionTime = 12.94 s  ClockTime = 14 s

fieldMinMax minmaxdomain write:
    min(p) = -75.038405 at location (0.01 0.51 0.49) on processor 0
    max(p) = 88.752496 at location (0 0.69 0.43) on processor 3
    min(p_rgh) = -2.678841 at location (0 0.47 0.57) on processor 0
    max(p_rgh) = 6857.6525 at location (0 0.69 0.43) on processor 3
    min(U) = (-0.35128217 -1.0471422 -0.45539022) at location (0.05 0.71 0.61) on processor 3
    max(U) = (0.091844714 0.11677727 0.17357893) at location (0.03 0.47 0.39) on processor 0
    min(alpha.water) = -3.2877604e-06 at location (0 0.69 0.37) on processor 3
    max(alpha.water) = 1 at location (0.03 0.53 0.51) on processor 0

volRegion water_in_domain write:
    volIntegrate() of alpha.water = 0.0024285713

Courant Number mean: 0.01976956 max: 0.72952612
Interface Courant Number mean: 0.0013268317 max: 0.72952612
deltaT = 0.0063492063
Time = 0.068254

PIMPLE: iteration 1
smoothSolver:  Solving for alpha.water, Initial residual = 0.028416428, Final residual = 4.9294365e-10, No Iterations 5
Phase-1 volume fraction = 0.0026825395  Min(alpha.water) = -3.2877604e-06  Max(alpha.water) = 1
MULES: Correcting alpha.water
MULES: Correcting alpha.water
Phase-1 volume fraction = 0.0026825395  Min(alpha.water) = -9.3316877e-06  Max(alpha.water) = 1
DICPCG:  Solving for p_rgh, Initial residual = 0.026803571, Final residual = 0.0009898234, No Iterations 3
time step continuity errors : sum local = 0.00035696753, global = 3.9447682e-08, cumulative = -6.1856883e-06
DICPCG:  Solving for p_rgh, Initial residual = 0.0010511123, Final residual = 5.1880578e-05, No Iterations 16
time step continuity errors : sum local = 1.9642114e-05, global = -1.0429372e-06, cumulative = -7.2286254e-06
DICPCG:  Solving for p_rgh, Initial residual = 0.00015922799, Final residual = 8.3798387e-08, No Iterations 86
time step continuity errors : sum local = 3.1760122e-08, global = -8.2502221e-10, cumulative = -7.2294505e-06
ExecutionTime = 13.6 s  ClockTime = 15 s

fieldMinMax minmaxdomain write:
    min(p) = -73.383851 at location (0 0.51 0.49) on processor 0
    max(p) = 89.111139 at location (0 0.69 0.43) on processor 3
    min(p_rgh) = -2.5363907 at location (0.01 0.47 0.57) on processor 0
    max(p_rgh) = 6858.0111 at location (0 0.69 0.43) on processor 3
    min(U) = (-0.36923161 -1.0715924 -0.46762142) at location (0.05 0.71 0.61) on processor 3
    max(U) = (0.58675459 0.21840112 0.18330869) at location (0.15 0.63 0.55) on processor 3
    min(alpha.water) = -9.3316877e-06 at location (0 0.47 0.41) on processor 0
    max(alpha.water) = 1 at location (0.03 0.51 0.49) on processor 0

volRegion water_in_domain write:
    volIntegrate() of alpha.water = 0.0026825395

Courant Number mean: 0.020508815 max: 0.72649969
Interface Courant Number mean: 0.0017530231 max: 0.72649969
deltaT = 0.0063492063
Time = 0.0746032

PIMPLE: iteration 1
smoothSolver:  Solving for alpha.water, Initial residual = 0.026639694, Final residual = 6.3033855e-10, No Iterations 5
Phase-1 volume fraction = 0.0029365078  Min(alpha.water) = -9.3316877e-06  Max(alpha.water) = 1
MULES: Correcting alpha.water
MULES: Correcting alpha.water
Phase-1 volume fraction = 0.0029365078  Min(alpha.water) = -9.4566062e-06  Max(alpha.water) = 1.0000038
DICPCG:  Solving for p_rgh, Initial residual = 0.020997365, Final residual = 0.00095917982, No Iterations 3
time step continuity errors : sum local = 0.00036976704, global = 2.7136355e-08, cumulative = -7.2023141e-06
DICPCG:  Solving for p_rgh, Initial residual = 0.0010349703, Final residual = 4.5185503e-05, No Iterations 17
time step continuity errors : sum local = 1.8099053e-05, global = -1.8025018e-06, cumulative = -9.0048159e-06
DICPCG:  Solving for p_rgh, Initial residual = 0.00015318496, Final residual = 9.3546221e-08, No Iterations 81
time step continuity errors : sum local = 3.7512545e-08, global = -2.4348593e-10, cumulative = -9.0050594e-06
ExecutionTime = 14.27 s  ClockTime = 16 s

fieldMinMax minmaxdomain write:
    min(p) = -71.335305 at location (0.01 0.51 0.49) on processor 0
    max(p) = 89.302704 at location (0 0.69 0.43) on processor 3
    min(p_rgh) = -2.1540965 at location (0.01 0.47 0.57) on processor 0
    max(p_rgh) = 6858.2027 at location (0 0.69 0.43) on processor 3
    min(U) = (-0.38412217 -1.0456953 -0.46536448) at location (0.05 0.71 0.61) on processor 3
    max(U) = (0.17651098 0.22325057 0.30046654) at location (0.03 0.47 0.39) on processor 0
    min(alpha.water) = -9.4566062e-06 at location (0 0.47 0.41) on processor 0
    max(alpha.water) = 1.0000038 at location (0.01 0.67 0.49) on processor 3

volRegion water_in_domain write:
    volIntegrate() of alpha.water = 0.0029365078

Courant Number mean: 0.021311979 max: 0.72573632
Interface Courant Number mean: 0.0016483769 max: 0.72573632
deltaT = 0.0063492063
Time = 0.0809524

PIMPLE: iteration 1
smoothSolver:  Solving for alpha.water, Initial residual = 0.025355953, Final residual = 8.2180021e-10, No Iterations 5
Phase-1 volume fraction = 0.003190476  Min(alpha.water) = -9.4566062e-06  Max(alpha.water) = 1
MULES: Correcting alpha.water
MULES: Correcting alpha.water
Phase-1 volume fraction = 0.003190476  Min(alpha.water) = -1.2156367e-05  Max(alpha.water) = 1.0000005
DICPCG:  Solving for p_rgh, Initial residual = 0.022691327, Final residual = 0.00084411173, No Iterations 3
time step continuity errors : sum local = 0.000348768, global = 3.6495581e-08, cumulative = -8.9685638e-06
DICPCG:  Solving for p_rgh, Initial residual = 0.00091127957, Final residual = 3.8360518e-05, No Iterations 17
time step continuity errors : sum local = 1.6462759e-05, global = -1.1297447e-06, cumulative = -1.0098309e-05
DICPCG:  Solving for p_rgh, Initial residual = 0.00013743477, Final residual = 9.7969776e-08, No Iterations 80
time step continuity errors : sum local = 4.209085e-08, global = 2.4479181e-10, cumulative = -1.0098064e-05
ExecutionTime = 14.93 s  ClockTime = 16 s

fieldMinMax minmaxdomain write:
    min(p) = -70.911797 at location (0.01 0.51 0.49) on processor 0
    max(p) = 89.514106 at location (0 0.69 0.43) on processor 3
    min(p_rgh) = -1.7468224 at location (0.01 0.47 0.57) on processor 0
    max(p_rgh) = 6858.4141 at location (0 0.69 0.43) on processor 3
    min(U) = (-0.39441914 -0.97667187 -0.45384275) at location (0.05 0.71 0.61) on processor 3
    max(U) = (0.046287033 0.51885349 0.30305308) at location (0.01 0.45 0.41) on processor 0
    min(alpha.water) = -1.2156367e-05 at location (0 0.47 0.41) on processor 0
    max(alpha.water) = 1.0000005 at location (0.01 0.67 0.43) on processor 3

volRegion water_in_domain write:
    volIntegrate() of alpha.water = 0.003190476

Courant Number mean: 0.022083097 max: 0.7222286
Interface Courant Number mean: 0.0016768808 max: 0.7222286
deltaT = 0.0063492063
Time = 0.0873016

PIMPLE: iteration 1
smoothSolver:  Solving for alpha.water, Initial residual = 0.024313576, Final residual = 1.0071878e-09, No Iterations 5
Phase-1 volume fraction = 0.0034444443  Min(alpha.water) = -1.2156367e-05  Max(alpha.water) = 1.0000001
MULES: Correcting alpha.water
MULES: Correcting alpha.water
Phase-1 volume fraction = 0.0034444443  Min(alpha.water) = -6.876855e-06  Max(alpha.water) = 1.000001
DICPCG:  Solving for p_rgh, Initial residual = 0.020103696, Final residual = 0.00072214886, No Iterations 3
time step continuity errors : sum local = 0.00032173627, global = 2.3791811e-08, cumulative = -1.0074272e-05
DICPCG:  Solving for p_rgh, Initial residual = 0.00078830134, Final residual = 3.7805199e-05, No Iterations 16
time step continuity errors : sum local = 1.7445934e-05, global = -1.1684853e-06, cumulative = -1.1242757e-05
DICPCG:  Solving for p_rgh, Initial residual = 0.0001279534, Final residual = 9.6111022e-08, No Iterations 80
time step continuity errors : sum local = 4.4400104e-08, global = -5.9817753e-10, cumulative = -1.1243355e-05
ExecutionTime = 15.6 s  ClockTime = 17 s

fieldMinMax minmaxdomain write:
    min(p) = -71.801374 at location (0.01 0.51 0.49) on processor 0
    max(p) = 89.672133 at location (0 0.69 0.43) on processor 3
    min(p_rgh) = -2.3055307 at location (0.03 0.47 0.53) on processor 0
    max(p_rgh) = 6858.5721 at location (0 0.69 0.43) on processor 3
    min(U) = (-0.25791582 -1.4129781 -0.52485914) at location (0.03 0.71 0.61) on processor 3
    max(U) = (0.068493924 0.48029824 0.33720283) at location (0.01 0.45 0.41) on processor 0
    min(alpha.water) = -6.876855e-06 at location (0 0.69 0.63) on processor 3
    max(alpha.water) = 1.000001 at location (0.01 0.67 0.43) on processor 3

volRegion water_in_domain write:
    volIntegrate() of alpha.water = 0.0034444443

Courant Number mean: 0.022869935 max: 0.73324278
Interface Courant Number mean: 0.0020705307 max: 0.73324278
deltaT = 0.0063492063
Time = 0.0936508

PIMPLE: iteration 1
smoothSolver:  Solving for alpha.water, Initial residual = 0.023859156, Final residual = 1.2039161e-09, No Iterations 5
Phase-1 volume fraction = 0.0036984125  Min(alpha.water) = -6.876855e-06  Max(alpha.water) = 1.0000001
MULES: Correcting alpha.water
MULES: Correcting alpha.water
Phase-1 volume fraction = 0.0036984125  Min(alpha.water) = -7.8997925e-06  Max(alpha.water) = 1.0000002
DICPCG:  Solving for p_rgh, Initial residual = 0.015556281, Final residual = 0.00071338833, No Iterations 3
time step continuity errors : sum local = 0.00033785226, global = 1.9887054e-08, cumulative = -1.1223468e-05
DICPCG:  Solving for p_rgh, Initial residual = 0.00078696912, Final residual = 3.8815212e-05, No Iterations 16
time step continuity errors : sum local = 1.8922063e-05, global = -1.5596922e-06, cumulative = -1.2783161e-05
DICPCG:  Solving for p_rgh, Initial residual = 0.00012942851, Final residual = 9.8532637e-08, No Iterations 81
time step continuity errors : sum local = 4.8081359e-08, global = -1.730717e-09, cumulative = -1.2784891e-05
ExecutionTime = 16.24 s  ClockTime = 18 s

fieldMinMax minmaxdomain write:
    min(p) = -73.159325 at location (0.01 0.51 0.49) on processor 0
    max(p) = 89.790816 at location (0 0.69 0.43) on processor 3
    min(p_rgh) = -2.3962089 at location (0.05 0.45 0.51) on processor 0
    max(p_rgh) = 6858.6908 at location (0 0.69 0.43) on processor 3
    min(U) = (-0.27634599 -0.15249349 -0.42309102) at location (0.11 0.45 0.37) on processor 0
    max(U) = (0.020132605 0.17360901 0.53790648) at location (0.03 0.53 0.37) on processor 0
    min(alpha.water) = -7.8997925e-06 at location (0 0.69 0.63) on processor 3
    max(alpha.water) = 1.0000002 at location (0.01 0.67 0.43) on processor 3

volRegion water_in_domain write:
    volIntegrate() of alpha.water = 0.0036984125

Courant Number mean: 0.023745604 max: 0.74194041
Interface Courant Number mean: 0.0021215075 max: 0.74194041
deltaT = 0.0063492063
Time = 0.1

PIMPLE: iteration 1
smoothSolver:  Solving for alpha.water, Initial residual = 0.022988192, Final residual = 1.5285375e-09, No Iterations 5
Phase-1 volume fraction = 0.0039523807  Min(alpha.water) = -7.8997925e-06  Max(alpha.water) = 1
MULES: Correcting alpha.water
MULES: Correcting alpha.water
Phase-1 volume fraction = 0.0039523807  Min(alpha.water) = -1.7120793e-05  Max(alpha.water) = 1.0000086
DICPCG:  Solving for p_rgh, Initial residual = 0.015852639, Final residual = 0.00066717622, No Iterations 3
time step continuity errors : sum local = 0.00033441827, global = 2.2242129e-08, cumulative = -1.2762649e-05
DICPCG:  Solving for p_rgh, Initial residual = 0.0007292108, Final residual = 3.6016372e-05, No Iterations 16
time step continuity errors : sum local = 1.8566777e-05, global = -1.1315477e-06, cumulative = -1.3894197e-05
DICPCG:  Solving for p_rgh, Initial residual = 0.00012148733, Final residual = 9.6695237e-08, No Iterations 80
time step continuity errors : sum local = 4.9890402e-08, global = -8.407478e-10, cumulative = -1.3895038e-05
ExecutionTime = 17.09 s  ClockTime = 19 s

fieldMinMax minmaxdomain write:
    min(p) = -74.371805 at location (0.01 0.51 0.49) on processor 0
    max(p) = 89.897782 at location (0 0.69 0.43) on processor 3
    min(p_rgh) = -2.5946809 at location (0.05 0.45 0.51) on processor 0
    max(p_rgh) = 6858.7978 at location (0 0.69 0.43) on processor 3
    min(U) = (-0.39923598 -0.81781155 -0.39560533) at location (0.05 0.71 0.61) on processor 3
    max(U) = (0.31579898 0.21737197 0.53135893) at location (0.03 0.45 0.43) on processor 0
    min(alpha.water) = -1.7120793e-05 at location (0.03 0.47 0.59) on processor 0
    max(alpha.water) = 1.0000086 at location (0.01 0.67 0.57) on processor 3

volRegion water_in_domain write:
    volIntegrate() of alpha.water = 0.0039523807

Courant Number mean: 0.024632684 max: 0.74442172
Interface Courant Number mean: 0.002069592 max: 0.74442172
deltaT = 0.0071428571
Time = 0.107143

PIMPLE: iteration 1
smoothSolver:  Solving for alpha.water, Initial residual = 0.025319625, Final residual = 4.4212911e-09, No Iterations 5
Phase-1 volume fraction = 0.004238095  Min(alpha.water) = -3.9469006e-06  Max(alpha.water) = 1
MULES: Correcting alpha.water
MULES: Correcting alpha.water
Phase-1 volume fraction = 0.004238095  Min(alpha.water) = -0.00012548642  Max(alpha.water) = 1.0000032
DICPCG:  Solving for p_rgh, Initial residual = 0.015844006, Final residual = 0.00068495673, No Iterations 3
time step continuity errors : sum local = 0.00045199477, global = 2.1459177e-08, cumulative = -1.3873578e-05
DICPCG:  Solving for p_rgh, Initial residual = 0.00076455065, Final residual = 3.6347546e-05, No Iterations 16
time step continuity errors : sum local = 2.4720167e-05, global = -1.9022999e-06, cumulative = -1.5775878e-05
DICPCG:  Solving for p_rgh, Initial residual = 0.00013598426, Final residual = 9.5423861e-08, No Iterations 86
time step continuity errors : sum local = 6.496321e-08, global = -9.5683447e-10, cumulative = -1.5776835e-05
ExecutionTime = 17.74 s  ClockTime = 20 s

fieldMinMax minmaxdomain write:
    min(p) = -75.450858 at location (0.01 0.51 0.49) on processor 0
    max(p) = 89.862713 at location (0 0.69 0.43) on processor 3
    min(p_rgh) = -2.578035 at location (0.05 0.45 0.51) on processor 0
    max(p_rgh) = 6858.7627 at location (0 0.69 0.43) on processor 3
    min(U) = (-0.25054653 -0.27844197 -0.39737274) at location (0.09 0.39 0.39) on processor 0
    max(U) = (0.029231999 0.1789496 0.51506871) at location (0.03 0.53 0.37) on processor 0
    min(alpha.water) = -0.00012548642 at location (0.05 0.45 0.59) on processor 0
    max(alpha.water) = 1.0000032 at location (0.01 0.67 0.57) on processor 3

volRegion water_in_domain write:
    volIntegrate() of alpha.water = 0.004238095

Courant Number mean: 0.028987552 max: 0.88233497
Interface Courant Number mean: 0.0029329739 max: 0.88233497
deltaT = 0.0071428571
Time = 0.114286

PIMPLE: iteration 1
smoothSolver:  Solving for alpha.water, Initial residual = 0.025476638, Final residual = 5.6987587e-09, No Iterations 5
Phase-1 volume fraction = 0.0045238092  Min(alpha.water) = -4.7211338e-06  Max(alpha.water) = 1
MULES: Correcting alpha.water
MULES: Correcting alpha.water
Phase-1 volume fraction = 0.0045238092  Min(alpha.water) = -7.3740582e-05  Max(alpha.water) = 1.0000031
DICPCG:  Solving for p_rgh, Initial residual = 0.013206648, Final residual = 0.0006407935, No Iterations 3
time step continuity errors : sum local = 0.00045055844, global = 2.9256405e-08, cumulative = -1.5747579e-05
DICPCG:  Solving for p_rgh, Initial residual = 0.00071786427, Final residual = 3.5515147e-05, No Iterations 15
time step continuity errors : sum local = 2.5614667e-05, global = -9.7409141e-07, cumulative = -1.672167e-05
DICPCG:  Solving for p_rgh, Initial residual = 0.00013057043, Final residual = 9.8437687e-08, No Iterations 81
time step continuity errors : sum local = 7.1063702e-08, global = -3.1791373e-09, cumulative = -1.6724849e-05
ExecutionTime = 18.39 s  ClockTime = 20 s

fieldMinMax minmaxdomain write:
    min(p) = -76.095485 at location (0.01 0.51 0.49) on processor 0
    max(p) = 89.896275 at location (0 0.69 0.43) on processor 3
    min(p_rgh) = -2.356623 at location (0.07 0.43 0.51) on processor 0
    max(p_rgh) = 6858.7963 at location (0 0.69 0.43) on processor 3
    min(U) = (-0.25413165 -0.18155617 -0.43982755) at location (0.13 0.43 0.37) on processor 0
    max(U) = (0.027198804 0.17463079 0.50052515) at location (0.03 0.53 0.37) on processor 0
    min(alpha.water) = -7.3740582e-05 at location (0.03 0.47 0.59) on processor 0
    max(alpha.water) = 1.0000031 at location (0.01 0.67 0.43) on processor 3

volRegion water_in_domain write:
    volIntegrate() of alpha.water = 0.0045238092

Courant Number mean: 0.030278928 max: 0.88461085
Interface Courant Number mean: 0.0030557357 max: 0.88461085
deltaT = 0.0071428571
Time = 0.121429

PIMPLE: iteration 1
smoothSolver:  Solving for alpha.water, Initial residual = 0.02498148, Final residual = 7.4987836e-09, No Iterations 5
Phase-1 volume fraction = 0.0048095234  Min(alpha.water) = -8.030676e-06  Max(alpha.water) = 1
MULES: Correcting alpha.water
MULES: Correcting alpha.water
Phase-1 volume fraction = 0.0048095234  Min(alpha.water) = -8.5912579e-05  Max(alpha.water) = 1.0000032
DICPCG:  Solving for p_rgh, Initial residual = 0.013440429, Final residual = 0.00059159457, No Iterations 3
time step continuity errors : sum local = 0.00044345922, global = 6.2522633e-09, cumulative = -1.6718597e-05
DICPCG:  Solving for p_rgh, Initial residual = 0.00066082404, Final residual = 3.2627788e-05, No Iterations 15
time step continuity errors : sum local = 2.5052636e-05, global = -9.8092429e-07, cumulative = -1.7699521e-05
DICPCG:  Solving for p_rgh, Initial residual = 0.00012215498, Final residual = 9.2147737e-08, No Iterations 81
time step continuity errors : sum local = 7.081493e-08, global = -3.2985384e-09, cumulative = -1.770282e-05
ExecutionTime = 19.03 s  ClockTime = 21 s

fieldMinMax minmaxdomain write:
    min(p) = -76.378142 at location (0 0.51 0.51) on processor 0
    max(p) = 89.91621 at location (0 0.69 0.43) on processor 3
    min(p_rgh) = -2.0098277 at location (0.07 0.43 0.51) on processor 0
    max(p_rgh) = 6858.8162 at location (0 0.69 0.43) on processor 3
    min(U) = (-0.40974522 -0.69303816 -0.35092449) at location (0.05 0.71 0.61) on processor 3
    max(U) = (0.023612555 0.17038549 0.4874395) at location (0.03 0.53 0.37) on processor 0
    min(alpha.water) = -8.5912579e-05 at location (0.03 0.47 0.59) on processor 0
    max(alpha.water) = 1.0000032 at location (0.01 0.67 0.43) on processor 3

volRegion water_in_domain write:
    volIntegrate() of alpha.water = 0.0048095234

Courant Number mean: 0.031562108 max: 0.93431258
Interface Courant Number mean: 0.0029522598 max: 0.93431258
deltaT = 0.0071428571
Time = 0.128571

PIMPLE: iteration 1
smoothSolver:  Solving for alpha.water, Initial residual = 0.024824614, Final residual = 8.7642281e-09, No Iterations 5
Phase-1 volume fraction = 0.0050952376  Min(alpha.water) = -1.7799553e-05  Max(alpha.water) = 1
MULES: Correcting alpha.water
MULES: Correcting alpha.water
Phase-1 volume fraction = 0.0050952376  Min(alpha.water) = -0.00011842083  Max(alpha.water) = 1.0000032
DICPCG:  Solving for p_rgh, Initial residual = 0.012720878, Final residual = 0.00052905841, No Iterations 3
time step continuity errors : sum local = 0.00042531238, global = 5.6990154e-09, cumulative = -1.7697121e-05
DICPCG:  Solving for p_rgh, Initial residual = 0.00059289031, Final residual = 2.7347478e-05, No Iterations 15
time step continuity errors : sum local = 2.2494225e-05, global = -6.2626625e-07, cumulative = -1.8323387e-05
DICPCG:  Solving for p_rgh, Initial residual = 0.00010888289, Final residual = 9.5309307e-08, No Iterations 84
time step continuity errors : sum local = 7.8459783e-08, global = -2.1626209e-10, cumulative = -1.8323603e-05
ExecutionTime = 19.7 s  ClockTime = 22 s

fieldMinMax minmaxdomain write:
    min(p) = -76.575588 at location (0 0.51 0.51) on processor 0
    max(p) = 89.942724 at location (0 0.69 0.43) on processor 3
    min(p_rgh) = -1.4325877 at location (0 0.47 0.57) on processor 0
    max(p_rgh) = 6858.8427 at location (0 0.69 0.43) on processor 3
    min(U) = (-0.24553264 -0.16087345 -0.4484977) at location (0.11 0.35 0.39) on processor 0
    max(U) = (0.20272525 0.42520966 0.47090781) at location (0.03 0.43 0.43) on processor 0
    min(alpha.water) = -0.00011842083 at location (0.03 0.47 0.41) on processor 0
    max(alpha.water) = 1.0000032 at location (0.01 0.67 0.43) on processor 3

volRegion water_in_domain write:
    volIntegrate() of alpha.water = 0.0050952376

Courant Number mean: 0.032842195 max: 0.95466223
Interface Courant Number mean: 0.0034822978 max: 0.95466223
deltaT = 0.0071428571
Time = 0.135714

PIMPLE: iteration 1
smoothSolver:  Solving for alpha.water, Initial residual = 0.02484085, Final residual = 3.0377493e-10, No Iterations 6
Phase-1 volume fraction = 0.0053809519  Min(alpha.water) = -1.5123313e-05  Max(alpha.water) = 1
MULES: Correcting alpha.water
MULES: Correcting alpha.water
Phase-1 volume fraction = 0.0053809519  Min(alpha.water) = -0.00014821893  Max(alpha.water) = 1.0000032
DICPCG:  Solving for p_rgh, Initial residual = 0.010615227, Final residual = 0.00051529587, No Iterations 3
time step continuity errors : sum local = 0.00044514336, global = 4.0367882e-09, cumulative = -1.8319566e-05
DICPCG:  Solving for p_rgh, Initial residual = 0.00058233792, Final residual = 2.7051759e-05, No Iterations 15
time step continuity errors : sum local = 2.3827021e-05, global = -9.6366256e-07, cumulative = -1.9283229e-05
DICPCG:  Solving for p_rgh, Initial residual = 0.00010936571, Final residual = 9.1262155e-08, No Iterations 85
time step continuity errors : sum local = 8.044199e-08, global = -5.4785564e-10, cumulative = -1.9283777e-05
ExecutionTime = 20.34 s  ClockTime = 23 s

fieldMinMax minmaxdomain write:
    min(p) = -76.661041 at location (0 0.51 0.51) on processor 0
    max(p) = 89.957834 at location (0 0.69 0.43) on processor 3
    min(p_rgh) = -1.5606415 at location (0.07 0.41 0.51) on processor 0
    max(p_rgh) = 6858.8578 at location (0 0.69 0.43) on processor 3
    min(U) = (-0.26263984 -1.3768032 -0.46657069) at location (0.03 0.71 0.61) on processor 3
    max(U) = (0.19640111 0.38921206 0.48511019) at location (0.03 0.43 0.43) on processor 0
    min(alpha.water) = -0.00014821893 at location (0.03 0.47 0.59) on processor 0
    max(alpha.water) = 1.0000032 at location (0.01 0.67 0.43) on processor 3

volRegion water_in_domain write:
    volIntegrate() of alpha.water = 0.0053809519

Courant Number mean: 0.034267782 max: 0.97036795
Interface Courant Number mean: 0.0036677504 max: 0.97036795
deltaT = 0.0071428571
Time = 0.142857

PIMPLE: iteration 1
smoothSolver:  Solving for alpha.water, Initial residual = 0.024545679, Final residual = 4.2683341e-10, No Iterations 6
Phase-1 volume fraction = 0.0056666662  Min(alpha.water) = -1.0713991e-05  Max(alpha.water) = 1
MULES: Correcting alpha.water
MULES: Correcting alpha.water
Phase-1 volume fraction = 0.0056666662  Min(alpha.water) = -0.00018214882  Max(alpha.water) = 1.0000037
DICPCG:  Solving for p_rgh, Initial residual = 0.010493675, Final residual = 0.00048216474, No Iterations 3
time step continuity errors : sum local = 0.00044834098, global = 6.0556089e-09, cumulative = -1.9277721e-05
DICPCG:  Solving for p_rgh, Initial residual = 0.00054037889, Final residual = 2.5539305e-05, No Iterations 15
time step continuity errors : sum local = 2.418438e-05, global = -5.985387e-07, cumulative = -1.987626e-05
DICPCG:  Solving for p_rgh, Initial residual = 0.00010481961, Final residual = 8.7561707e-08, No Iterations 84
time step continuity errors : sum local = 8.2974019e-08, global = 8.5319137e-11, cumulative = -1.9876175e-05
ExecutionTime = 21 s  ClockTime = 24 s

fieldMinMax minmaxdomain write:
    min(p) = -76.624511 at location (0.01 0.51 0.51) on processor 0
    max(p) = 89.983244 at location (0 0.69 0.43) on processor 3
    min(p_rgh) = -1.3363431 at location (0 0.47 0.57) on processor 0
    max(p_rgh) = 6858.8832 at location (0 0.69 0.43) on processor 3
    min(U) = (-0.26946003 -0.34447784 -0.44104275) at location (0.13 0.35 0.39) on processor 0
    max(U) = (0.37594972 0.040134951 0.54983837) at location (0.05 0.41 0.43) on processor 0
    min(alpha.water) = -0.00018214882 at location (0.03 0.47 0.59) on processor 0
    max(alpha.water) = 1.0000037 at location (0.07 0.49 0.45) on processor 0

volRegion water_in_domain write:
    volIntegrate() of alpha.water = 0.0056666662

Courant Number mean: 0.035687907 max: 1.0124867
Interface Courant Number mean: 0.0035987976 max: 1.0124867
deltaT = 0.0035714286
Time = 0.146429

PIMPLE: iteration 1
smoothSolver:  Solving for alpha.water, Initial residual = 0.01258189, Final residual = 4.9105592e-09, No Iterations 4
Phase-1 volume fraction = 0.0058095232  Min(alpha.water) = -1.1961469e-05  Max(alpha.water) = 1
MULES: Correcting alpha.water
MULES: Correcting alpha.water
Phase-1 volume fraction = 0.0058095232  Min(alpha.water) = -2.324609e-05  Max(alpha.water) = 1.0000006
DICPCG:  Solving for p_rgh, Initial residual = 0.0095297681, Final residual = 0.00041477951, No Iterations 2
time step continuity errors : sum local = 0.00011788969, global = -5.3784385e-10, cumulative = -1.9876712e-05
DICPCG:  Solving for p_rgh, Initial residual = 0.00042970146, Final residual = 2.1404139e-05, No Iterations 20
time step continuity errors : sum local = 6.1388982e-06, global = 2.1401537e-06, cumulative = -1.7736559e-05
DICPCG:  Solving for p_rgh, Initial residual = 4.9773307e-05, Final residual = 9.143916e-08, No Iterations 74
time step continuity errors : sum local = 2.6240636e-08, global = -6.2518104e-10, cumulative = -1.7737184e-05
ExecutionTime = 21.64 s  ClockTime = 24 s

fieldMinMax minmaxdomain write:
    min(p) = -74.484043 at location (0.01 0.51 0.51) on processor 0
    max(p) = 90.262494 at location (0 0.69 0.43) on processor 3
    min(p_rgh) = -0.80686359 at location (0.15 0.41 0.37) on processor 0
    max(p_rgh) = 6859.1625 at location (0 0.69 0.43) on processor 3
    min(U) = (-0.23362577 -0.22939163 -0.53258649) at location (0.13 0.33 0.39) on processor 0
    max(U) = (0.15787942 0.32959065 0.48065389) at location (0.03 0.43 0.43) on processor 0
    min(alpha.water) = -2.324609e-05 at location (0.03 0.47 0.59) on processor 0
    max(alpha.water) = 1.0000006 at location (0.05 0.61 0.45) on processor 3

volRegion water_in_domain write:
    volIntegrate() of alpha.water = 0.0058095232

Courant Number mean: 0.017909696 max: 0.51449689
Interface Courant Number mean: 0.0017921408 max: 0.51449689
deltaT = 0.0035714286
Time = 0.15

PIMPLE: iteration 1
smoothSolver:  Solving for alpha.water, Initial residual = 0.012645337, Final residual = 4.2881643e-09, No Iterations 4
Phase-1 volume fraction = 0.0059523803  Min(alpha.water) = -1.140524e-06  Max(alpha.water) = 1.0000001
MULES: Correcting alpha.water
MULES: Correcting alpha.water
Phase-1 volume fraction = 0.0059523803  Min(alpha.water) = -1.8548671e-05  Max(alpha.water) = 1.0000003
DICPCG:  Solving for p_rgh, Initial residual = 0.0093205994, Final residual = 0.00037271935, No Iterations 2
time step continuity errors : sum local = 0.0001088087, global = -1.7390278e-08, cumulative = -1.7754574e-05
DICPCG:  Solving for p_rgh, Initial residual = 0.00039231841, Final residual = 1.9351208e-05, No Iterations 13
time step continuity errors : sum local = 5.7037855e-06, global = -1.868412e-07, cumulative = -1.7941415e-05
DICPCG:  Solving for p_rgh, Initial residual = 5.2206447e-05, Final residual = 9.5696643e-08, No Iterations 80
time step continuity errors : sum local = 2.8219776e-08, global = 1.3180267e-10, cumulative = -1.7941284e-05
ExecutionTime = 22.52 s  ClockTime = 25 s

fieldMinMax minmaxdomain write:
    min(p) = -75.280888 at location (0.01 0.51 0.49) on processor 0
    max(p) = 90.267039 at location (0 0.69 0.43) on processor 3
    min(p_rgh) = -1.694338 at location (0.13 0.41 0.61) on processor 0
    max(p_rgh) = 6859.167 at location (0 0.69 0.43) on processor 3
    min(U) = (-0.25379117 -0.25097846 -0.51892059) at location (0.13 0.33 0.39) on processor 0
    max(U) = (0.14195999 0.31398648 0.4810517) at location (0.03 0.43 0.43) on processor 0
    min(alpha.water) = -1.8548671e-05 at location (0.03 0.47 0.59) on processor 0
    max(alpha.water) = 1.0000003 at location (0.03 0.63 0.49) on processor 3

volRegion water_in_domain write:
    volIntegrate() of alpha.water = 0.0059523803

Courant Number mean: 0.018103445 max: 0.5197113
Interface Courant Number mean: 0.0018164509 max: 0.5197113
deltaT = 0.0041666667
Time = 0.154167

PIMPLE: iteration 1
smoothSolver:  Solving for alpha.water, Initial residual = 0.014841982, Final residual = 2.1662633e-10, No Iterations 5
Phase-1 volume fraction = 0.006119047  Min(alpha.water) = -1.5747928e-06  Max(alpha.water) = 1
MULES: Correcting alpha.water
MULES: Correcting alpha.water
Phase-1 volume fraction = 0.006119047  Min(alpha.water) = -3.5362493e-05  Max(alpha.water) = 1.0000005
DICPCG:  Solving for p_rgh, Initial residual = 0.0082012385, Final residual = 0.00027489381, No Iterations 3
time step continuity errors : sum local = 0.00010768234, global = 4.1378535e-09, cumulative = -1.7937146e-05
DICPCG:  Solving for p_rgh, Initial residual = 0.00030104376, Final residual = 1.428205e-05, No Iterations 21
time step continuity errors : sum local = 5.6490499e-06, global = -1.3462752e-06, cumulative = -1.9283421e-05
DICPCG:  Solving for p_rgh, Initial residual = 4.6907877e-05, Final residual = 8.1061384e-08, No Iterations 78
time step continuity errors : sum local = 3.2068978e-08, global = 7.8734468e-10, cumulative = -1.9282634e-05
ExecutionTime = 23.16 s  ClockTime = 26 s

fieldMinMax minmaxdomain write:
    min(p) = -76.357676 at location (0 0.51 0.51) on processor 0
    max(p) = 90.271952 at location (0 0.69 0.43) on processor 3
    min(p_rgh) = -1.2907022 at location (0 0.47 0.57) on processor 0
    max(p_rgh) = 6859.172 at location (0 0.69 0.43) on processor 3
    min(U) = (-0.2331141 -0.28758284 -0.50657403) at location (0.17 0.39 0.37) on processor 0
    max(U) = (0.12608963 0.30324588 0.48166999) at location (0.03 0.43 0.43) on processor 0
    min(alpha.water) = -3.5362493e-05 at location (0.03 0.47 0.59) on processor 0
    max(alpha.water) = 1.0000005 at location (0.03 0.63 0.51) on processor 3

volRegion water_in_domain write:
    volIntegrate() of alpha.water = 0.006119047

Courant Number mean: 0.021612413 max: 0.60443901
Interface Courant Number mean: 0.0023970854 max: 0.60443901
deltaT = 0.0045833333
Time = 0.15875

PIMPLE: iteration 1
smoothSolver:  Solving for alpha.water, Initial residual = 0.016409928, Final residual = 5.4414939e-10, No Iterations 5
Phase-1 volume fraction = 0.0063023803  Min(alpha.water) = -3.2088534e-06  Max(alpha.water) = 1
MULES: Correcting alpha.water
MULES: Correcting alpha.water
Phase-1 volume fraction = 0.0063023803  Min(alpha.water) = -3.7856312e-05  Max(alpha.water) = 1.000016
DICPCG:  Solving for p_rgh, Initial residual = 0.0084114971, Final residual = 0.00031724688, No Iterations 3
time step continuity errors : sum local = 0.00014916593, global = 1.4128796e-08, cumulative = -1.9268505e-05
DICPCG:  Solving for p_rgh, Initial residual = 0.00034864815, Final residual = 1.7226155e-05, No Iterations 15
time step continuity errors : sum local = 8.1768715e-06, global = -2.8337576e-07, cumulative = -1.9551881e-05
DICPCG:  Solving for p_rgh, Initial residual = 5.8414661e-05, Final residual = 9.9384683e-08, No Iterations 81
time step continuity errors : sum local = 4.7183734e-08, global = -2.5532865e-10, cumulative = -1.9552136e-05
ExecutionTime = 23.82 s  ClockTime = 27 s

fieldMinMax minmaxdomain write:
    min(p) = -76.779397 at location (0.01 0.51 0.51) on processor 0
    max(p) = 90.324862 at location (0 0.69 0.43) on processor 3
    min(p_rgh) = -1.3413172 at location (0 0.47 0.57) on processor 0
    max(p_rgh) = 6859.2249 at location (0 0.69 0.43) on processor 3
    min(U) = (-0.32039058 -0.13973065 -0.42208312) at location (0.13 0.41 0.63) on processor 0
    max(U) = (0.1105724 0.29431643 0.48018488) at location (0.03 0.43 0.43) on processor 0
    min(alpha.water) = -3.7856312e-05 at location (0.03 0.47 0.59) on processor 0
    max(alpha.water) = 1.000016 at location (0.07 0.49 0.47) on processor 0

volRegion water_in_domain write:
    volIntegrate() of alpha.water = 0.0063023803

Courant Number mean: 0.024438374 max: 0.67583161
Interface Courant Number mean: 0.0026162958 max: 0.67583161
deltaT = 0.00515625
Time = 0.163906

PIMPLE: iteration 1
smoothSolver:  Solving for alpha.water, Initial residual = 0.018507864, Final residual = 1.5714295e-09, No Iterations 5
Phase-1 volume fraction = 0.0065086304  Min(alpha.water) = -4.2238263e-06  Max(alpha.water) = 1.0000001
MULES: Correcting alpha.water
MULES: Correcting alpha.water
Phase-1 volume fraction = 0.0065086304  Min(alpha.water) = -3.4094078e-05  Max(alpha.water) = 1.0000525
DICPCG:  Solving for p_rgh, Initial residual = 0.0089567927, Final residual = 0.00033337558, No Iterations 3
time step continuity errors : sum local = 0.00019726968, global = -2.0501305e-09, cumulative = -1.9554186e-05
DICPCG:  Solving for p_rgh, Initial residual = 0.00036865956, Final residual = 1.5956859e-05, No Iterations 16
time step continuity errors : sum local = 9.5554092e-06, global = -2.0780984e-07, cumulative = -1.9761996e-05
DICPCG:  Solving for p_rgh, Initial residual = 6.5815849e-05, Final residual = 9.1235459e-08, No Iterations 82
time step continuity errors : sum local = 5.4646457e-08, global = -4.4449254e-10, cumulative = -1.976244e-05
ExecutionTime = 24.46 s  ClockTime = 28 s

fieldMinMax minmaxdomain write:
    min(p) = -77.050927 at location (0.01 0.51 0.51) on processor 0
    max(p) = 90.353422 at location (0 0.69 0.43) on processor 3
    min(p_rgh) = -1.3967476 at location (0 0.47 0.57) on processor 0
    max(p_rgh) = 6859.2534 at location (0 0.69 0.43) on processor 3
    min(U) = (-0.42124755 -0.151994 -0.38240034) at location (0.11 0.29 0.41) on processor 0
    max(U) = (0.096428642 0.28770101 0.4780176) at location (0.03 0.43 0.43) on processor 0
    min(alpha.water) = -3.4094078e-05 at location (0.03 0.47 0.59) on processor 0
    max(alpha.water) = 1.0000525 at location (0.07 0.49 0.45) on processor 0

volRegion water_in_domain write:
    volIntegrate() of alpha.water = 0.0065086304

Courant Number mean: 0.028353835 max: 0.77723837
Interface Courant Number mean: 0.0029973902 max: 0.77723837
deltaT = 0.00515625
Time = 0.169063

PIMPLE: iteration 1
smoothSolver:  Solving for alpha.water, Initial residual = 0.018769776, Final residual = 1.8367215e-09, No Iterations 5
Phase-1 volume fraction = 0.0067148804  Min(alpha.water) = -6.6522766e-06  Max(alpha.water) = 1.0000001
MULES: Correcting alpha.water
MULES: Correcting alpha.water
Phase-1 volume fraction = 0.0067148804  Min(alpha.water) = -3.3332305e-05  Max(alpha.water) = 1.0000322
DICPCG:  Solving for p_rgh, Initial residual = 0.0086436658, Final residual = 0.00029050304, No Iterations 3
time step continuity errors : sum local = 0.00017596996, global = -4.0023302e-09, cumulative = -1.9766443e-05
DICPCG:  Solving for p_rgh, Initial residual = 0.00032348551, Final residual = 1.4589675e-05, No Iterations 16
time step continuity errors : sum local = 8.9440121e-06, global = 1.8224173e-07, cumulative = -1.9584201e-05
DICPCG:  Solving for p_rgh, Initial residual = 5.7912748e-05, Final residual = 9.025834e-08, No Iterations 79
time step continuity errors : sum local = 5.5344435e-08, global = 1.9637517e-09, cumulative = -1.9582237e-05
ExecutionTime = 25.12 s  ClockTime = 28 s

fieldMinMax minmaxdomain write:
    min(p) = -76.879206 at location (0.01 0.51 0.51) on processor 0
    max(p) = 90.381635 at location (0 0.69 0.43) on processor 3
    min(p_rgh) = -1.4294601 at location (0.15 0.39 0.39) on processor 0
    max(p_rgh) = 6859.2816 at location (0 0.69 0.43) on processor 3
    min(U) = (-0.36905206 -0.42566045 -0.45201038) at location (0.13 0.29 0.41) on processor 0
    max(U) = (0.1511622 0.48970786 0.27606303) at location (0.01 0.47 0.43) on processor 0
    min(alpha.water) = -3.3332305e-05 at location (0.05 0.45 0.59) on processor 0
    max(alpha.water) = 1.0000322 at location (0.07 0.49 0.55) on processor 0

volRegion water_in_domain write:
    volIntegrate() of alpha.water = 0.0067148804

Courant Number mean: 0.029115449 max: 0.77661142
Interface Courant Number mean: 0.0031115286 max: 0.77661142
deltaT = 0.00515625
Time = 0.174219

PIMPLE: iteration 1
smoothSolver:  Solving for alpha.water, Initial residual = 0.018999656, Final residual = 2.2181635e-09, No Iterations 5
Phase-1 volume fraction = 0.0069211304  Min(alpha.water) = -6.3367308e-06  Max(alpha.water) = 1.0000001
MULES: Correcting alpha.water
MULES: Correcting alpha.water
Phase-1 volume fraction = 0.0069211304  Min(alpha.water) = -3.8144523e-05  Max(alpha.water) = 1.0000133
DICPCG:  Solving for p_rgh, Initial residual = 0.0079620121, Final residual = 0.0002783274, No Iterations 3
time step continuity errors : sum local = 0.00017222141, global = -4.1234388e-09, cumulative = -1.9586361e-05
DICPCG:  Solving for p_rgh, Initial residual = 0.00031462088, Final residual = 1.4965216e-05, No Iterations 14
time step continuity errors : sum local = 9.359067e-06, global = -1.2556924e-07, cumulative = -1.971193e-05
DICPCG:  Solving for p_rgh, Initial residual = 5.7801048e-05, Final residual = 8.9882715e-08, No Iterations 82
time step continuity errors : sum local = 5.6222388e-08, global = -1.1440864e-10, cumulative = -1.9712044e-05
ExecutionTime = 25.78 s  ClockTime = 29 s

fieldMinMax minmaxdomain write:
    min(p) = -76.760546 at location (0.01 0.51 0.49) on processor 0
    max(p) = 90.372942 at location (0 0.69 0.57) on processor 3
    min(p_rgh) = -1.2851028 at location (0 0.47 0.57) on processor 0
    max(p_rgh) = 6859.2729 at location (0 0.69 0.57) on processor 3
    min(U) = (-0.38928076 -0.2529354 -0.45419202) at location (0.13 0.27 0.41) on processor 0
    max(U) = (0.2885783 0.36064798 0.27016897) at location (0.25 0.53 0.59) on processor 3
    min(alpha.water) = -3.8144523e-05 at location (0.05 0.45 0.59) on processor 0
    max(alpha.water) = 1.0000133 at location (0.07 0.49 0.47) on processor 0

volRegion water_in_domain write:
    volIntegrate() of alpha.water = 0.0069211304

Courant Number mean: 0.029933161 max: 0.78382721
Interface Courant Number mean: 0.0034975523 max: 0.78382721
deltaT = 0.00515625
Time = 0.179375

PIMPLE: iteration 1
smoothSolver:  Solving for alpha.water, Initial residual = 0.019076692, Final residual = 2.6324242e-09, No Iterations 5
Phase-1 volume fraction = 0.0071273805  Min(alpha.water) = -7.3548845e-06  Max(alpha.water) = 1.0000001
MULES: Correcting alpha.water
MULES: Correcting alpha.water
Phase-1 volume fraction = 0.0071273805  Min(alpha.water) = -4.1021048e-05  Max(alpha.water) = 1.0000391
DICPCG:  Solving for p_rgh, Initial residual = 0.0071658651, Final residual = 0.00027614687, No Iterations 3
time step continuity errors : sum local = 0.00017337935, global = -5.7071691e-09, cumulative = -1.9717751e-05
DICPCG:  Solving for p_rgh, Initial residual = 0.00031359599, Final residual = 1.5248815e-05, No Iterations 15
time step continuity errors : sum local = 9.6622739e-06, global = -2.400383e-07, cumulative = -1.995779e-05
DICPCG:  Solving for p_rgh, Initial residual = 5.967461e-05, Final residual = 9.1514809e-08, No Iterations 82
time step continuity errors : sum local = 5.7995572e-08, global = 7.1959641e-11, cumulative = -1.9957718e-05
ExecutionTime = 26.45 s  ClockTime = 30 s

fieldMinMax minmaxdomain write:
    min(p) = -76.682258 at location (0.01 0.51 0.51) on processor 0
    max(p) = 90.355402 at location (0 0.69 0.43) on processor 3
    min(p_rgh) = -1.2590158 at location (0 0.47 0.57) on processor 0
    max(p_rgh) = 6859.2554 at location (0 0.69 0.43) on processor 3
    min(U) = (-0.43530032 -0.22168401 -0.44425223) at location (0.13 0.27 0.41) on processor 0
    max(U) = (0.18984286 0.32746712 0.26996656) at location (0.05 0.39 0.45) on processor 0
    min(alpha.water) = -4.1021048e-05 at location (0.05 0.45 0.59) on processor 0
    max(alpha.water) = 1.0000391 at location (0.07 0.49 0.47) on processor 0

volRegion water_in_domain write:
    volIntegrate() of alpha.water = 0.0071273805

Courant Number mean: 0.030795662 max: 0.8054677
Interface Courant Number mean: 0.0035455255 max: 0.8054677
deltaT = 0.00515625
Time = 0.184531

PIMPLE: iteration 1
smoothSolver:  Solving for alpha.water, Initial residual = 0.019207439, Final residual = 2.9420364e-09, No Iterations 5
Phase-1 volume fraction = 0.0073336306  Min(alpha.water) = -8.4515111e-06  Max(alpha.water) = 1.0000001
MULES: Correcting alpha.water
MULES: Correcting alpha.water
Phase-1 volume fraction = 0.0073336306  Min(alpha.water) = -0.000124959  Max(alpha.water) = 1.0000412
DICPCG:  Solving for p_rgh, Initial residual = 0.0074488124, Final residual = 0.0002577034, No Iterations 3
time step continuity errors : sum local = 0.00016423273, global = -2.6190874e-09, cumulative = -1.9960337e-05
DICPCG:  Solving for p_rgh, Initial residual = 0.00029315444, Final residual = 1.3607126e-05, No Iterations 16
time step continuity errors : sum local = 8.7544607e-06, global = -1.2990308e-07, cumulative = -2.009024e-05
DICPCG:  Solving for p_rgh, Initial residual = 5.6242214e-05, Final residual = 9.7690897e-08, No Iterations 55
time step continuity errors : sum local = 6.2859078e-08, global = 4.3087366e-09, cumulative = -2.0085931e-05
ExecutionTime = 27.06 s  ClockTime = 31 s

fieldMinMax minmaxdomain write:
    min(p) = -76.671273 at location (0.01 0.51 0.51) on processor 0
    max(p) = 90.344999 at location (0 0.69 0.57) on processor 3
    min(p_rgh) = -1.2611509 at location (0 0.47 0.57) on processor 0
    max(p_rgh) = 6859.245 at location (0 0.69 0.57) on processor 3
    min(U) = (-0.34300345 -0.35986305 -0.5214052) at location (0.15 0.25 0.41) on processor 0
    max(U) = (0.53772188 0.24366505 0.28125423) at location (0.27 0.47 0.57) on processor 0
    min(alpha.water) = -0.000124959 at location (0.09 0.45 0.59) on processor 0
    max(alpha.water) = 1.0000412 at location (0.07 0.49 0.47) on processor 0

volRegion water_in_domain write:
    volIntegrate() of alpha.water = 0.0073336306

Courant Number mean: 0.031632587 max: 0.82595491
Interface Courant Number mean: 0.0036798757 max: 0.82595491
deltaT = 0.00515625
Time = 0.189688

PIMPLE: iteration 1
smoothSolver:  Solving for alpha.water, Initial residual = 0.019436801, Final residual = 3.3281688e-09, No Iterations 5
Phase-1 volume fraction = 0.0075398806  Min(alpha.water) = -9.4806816e-06  Max(alpha.water) = 1.0000001
MULES: Correcting alpha.water
MULES: Correcting alpha.water
Phase-1 volume fraction = 0.0075398806  Min(alpha.water) = -0.0001209991  Max(alpha.water) = 1.0000383
DICPCG:  Solving for p_rgh, Initial residual = 0.0076225822, Final residual = 0.000240284, No Iterations 3
time step continuity errors : sum local = 0.00015553311, global = 3.6116531e-09, cumulative = -2.008232e-05
DICPCG:  Solving for p_rgh, Initial residual = 0.00027548577, Final residual = 1.2886442e-05, No Iterations 15
time step continuity errors : sum local = 8.4203422e-06, global = -8.0875467e-08, cumulative = -2.0163195e-05
DICPCG:  Solving for p_rgh, Initial residual = 5.2563347e-05, Final residual = 9.9050396e-08, No Iterations 79
time step continuity errors : sum local = 6.4728414e-08, global = -4.8665072e-10, cumulative = -2.0163682e-05
ExecutionTime = 27.71 s  ClockTime = 32 s

fieldMinMax minmaxdomain write:
    min(p) = -76.642774 at location (0.01 0.51 0.51) on processor 0
    max(p) = 90.332602 at location (0 0.69 0.57) on processor 3
    min(p_rgh) = -1.2764096 at location (0.17 0.33 0.39) on processor 0
    max(p_rgh) = 6859.2326 at location (0 0.69 0.57) on processor 3
    min(U) = (-0.22605547 -0.27388187 -0.57794597) at location (0.17 0.27 0.39) on processor 0
    max(U) = (0.55608051 0.243284 0.27518253) at location (0.27 0.47 0.57) on processor 0
    min(alpha.water) = -0.0001209991 at location (0.09 0.45 0.59) on processor 0
    max(alpha.water) = 1.0000383 at location (0.07 0.49 0.47) on processor 0

volRegion water_in_domain write:
    volIntegrate() of alpha.water = 0.0075398806

Courant Number mean: 0.032440544 max: 0.82967204
Interface Courant Number mean: 0.0037877324 max: 0.82967204
deltaT = 0.00515625
Time = 0.194844

PIMPLE: iteration 1
smoothSolver:  Solving for alpha.water, Initial residual = 0.019633828, Final residual = 3.7143451e-09, No Iterations 5
Phase-1 volume fraction = 0.0077461307  Min(alpha.water) = -1.1737401e-05  Max(alpha.water) = 1.0000001
MULES: Correcting alpha.water
MULES: Correcting alpha.water
Phase-1 volume fraction = 0.0077461307  Min(alpha.water) = -0.00012219889  Max(alpha.water) = 1.000028
DICPCG:  Solving for p_rgh, Initial residual = 0.0074204883, Final residual = 0.00023096048, No Iterations 3
time step continuity errors : sum local = 0.00015185495, global = -9.9216566e-09, cumulative = -2.0173603e-05
DICPCG:  Solving for p_rgh, Initial residual = 0.00026798635, Final residual = 1.2240044e-05, No Iterations 14
time step continuity errors : sum local = 8.1187872e-06, global = -5.8085029e-08, cumulative = -2.0231688e-05
[...]
    max(alpha.water) = 0.84352268 at location (0.97 0.01 0.85) on processor 1

volRegion water_in_domain write:
    volIntegrate() of alpha.water = 0.039845152

Courant Number mean: 0.16242391 max: 0.94802468
Interface Courant Number mean: 0.032338912 max: 0.94802468
deltaT = 0.0031622024
Time = 1.97154

PIMPLE: iteration 1
smoothSolver:  Solving for alpha.water, Initial residual = 0.014370468, Final residual = 5.8586316e-10, No Iterations 4
Phase-1 volume fraction = 0.039845114  Min(alpha.water) = -3.6956073e-08  Max(alpha.water) = 0.84352267
MULES: Correcting alpha.water
MULES: Correcting alpha.water
Phase-1 volume fraction = 0.039845114  Min(alpha.water) = -5.9717013e-08  Max(alpha.water) = 0.84352267
DICPCG:  Solving for p_rgh, Initial residual = 0.047382413, Final residual = 0.0013256639, No Iterations 2
time step continuity errors : sum local = 0.00041425806, global = 2.1826257e-06, cumulative = -7.3550456e-05
DICPCG:  Solving for p_rgh, Initial residual = 0.0016784744, Final residual = 6.9394733e-05, No Iterations 7
time step continuity errors : sum local = 2.1528247e-05, global = 4.1566602e-07, cumulative = -7.313479e-05
DICPCG:  Solving for p_rgh, Initial residual = 0.00021268469, Final residual = 9.5094198e-08, No Iterations 75
time step continuity errors : sum local = 2.9501507e-08, global = 2.3461284e-09, cumulative = -7.3132444e-05
ExecutionTime = 474.86 s  ClockTime = 537 s

fieldMinMax minmaxdomain write:
    min(p) = -104.27247 at location (0.63 0.09 0.91) on processor 1
    max(p) = 772.46656 at location (0.93 0 0.71) on processor 1
    min(p_rgh) = -3.6547332 at location (0.65 0.21 0.83) on processor 1
    max(p_rgh) = 1348.1444 at location (0.61 0.19 0.45) on processor 1
    min(U) = (-1.1925438 -0.92268292 -0.98603317) at location (0.29 0.09 0.27) on processor 0
    max(U) = (1.4195975 3.5401629 0.93316571) at location (0.05 0.43 0.07) on processor 0
    min(alpha.water) = -5.9717013e-08 at location (0 0.37 0.05) on processor 0
    max(alpha.water) = 0.84352267 at location (0.99 0.03 0.85) on processor 1

volRegion water_in_domain write:
    volIntegrate() of alpha.water = 0.039845114

Courant Number mean: 0.16217194 max: 0.95085225
Interface Courant Number mean: 0.032150702 max: 0.92470651
deltaT = 0.0031622024
Time = 1.9747

PIMPLE: iteration 1
smoothSolver:  Solving for alpha.water, Initial residual = 0.014335388, Final residual = 5.5198356e-10, No Iterations 4
Phase-1 volume fraction = 0.039845077  Min(alpha.water) = -5.9717013e-08  Max(alpha.water) = 0.84352266
MULES: Correcting alpha.water
MULES: Correcting alpha.water
Phase-1 volume fraction = 0.039845077  Min(alpha.water) = -1.4573559e-06  Max(alpha.water) = 0.84352266
DICPCG:  Solving for p_rgh, Initial residual = 0.047284388, Final residual = 0.0013362691, No Iterations 2
time step continuity errors : sum local = 0.00041714795, global = 2.1314858e-06, cumulative = -7.1000958e-05
DICPCG:  Solving for p_rgh, Initial residual = 0.0016875962, Final residual = 7.050127e-05, No Iterations 7
time step continuity errors : sum local = 2.1846241e-05, global = 4.0055581e-07, cumulative = -7.0600402e-05
DICPCG:  Solving for p_rgh, Initial residual = 0.00021121488, Final residual = 8.998764e-08, No Iterations 74
time step continuity errors : sum local = 2.788892e-08, global = 1.0600805e-09, cumulative = -7.0599342e-05
ExecutionTime = 475.61 s  ClockTime = 538 s

fieldMinMax minmaxdomain write:
    min(p) = -104.2534 at location (0.63 0.09 0.91) on processor 1
    max(p) = 754.74215 at location (0.93 0 0.71) on processor 1
    min(p_rgh) = -4.6753569 at location (0.65 0.21 0.83) on processor 1
    max(p_rgh) = 1362.3919 at location (0.61 0.19 0.45) on processor 1
    min(U) = (-1.1948769 -0.71441891 -0.99205953) at location (0.27 0.09 0.27) on processor 0
    max(U) = (1.3951257 3.5506793 1.0631622) at location (0.05 0.43 0.07) on processor 0
    min(alpha.water) = -1.4573559e-06 at location (0 0.19 0.05) on processor 0
    max(alpha.water) = 0.84352266 at location (0.99 0.03 0.85) on processor 1

volRegion water_in_domain write:
    volIntegrate() of alpha.water = 0.039845077

Courant Number mean: 0.16192536 max: 0.94801367
Interface Courant Number mean: 0.031856025 max: 0.90244744
deltaT = 0.0031622024
Time = 1.97786

PIMPLE: iteration 1
smoothSolver:  Solving for alpha.water, Initial residual = 0.014304979, Final residual = 5.258447e-10, No Iterations 4
Phase-1 volume fraction = 0.039845042  Min(alpha.water) = -1.4573559e-06  Max(alpha.water) = 0.84352266
MULES: Correcting alpha.water
MULES: Correcting alpha.water
Phase-1 volume fraction = 0.039845042  Min(alpha.water) = -1.3909377e-06  Max(alpha.water) = 0.84352266
DICPCG:  Solving for p_rgh, Initial residual = 0.047484823, Final residual = 0.0013339878, No Iterations 2
time step continuity errors : sum local = 0.00041673201, global = 2.0878151e-06, cumulative = -6.8511527e-05
DICPCG:  Solving for p_rgh, Initial residual = 0.001681924, Final residual = 7.1155244e-05, No Iterations 7
time step continuity errors : sum local = 2.2059633e-05, global = 3.9777083e-07, cumulative = -6.8113756e-05
DICPCG:  Solving for p_rgh, Initial residual = 0.00021025163, Final residual = 9.7878568e-08, No Iterations 73
time step continuity errors : sum local = 3.0350076e-08, global = 2.9093559e-09, cumulative = -6.8110847e-05
ExecutionTime = 476.34 s  ClockTime = 539 s

fieldMinMax minmaxdomain write:
    min(p) = -99.042709 at location (0.63 0.09 0.91) on processor 1
    max(p) = 738.04531 at location (0.93 0 0.71) on processor 1
    min(p_rgh) = -5.0550654 at location (0.65 0.21 0.83) on processor 1
    max(p_rgh) = 1355.4618 at location (0.61 0.19 0.45) on processor 1
    min(U) = (-1.1489756 -0.75293639 -1.0105641) at location (0.27 0.09 0.27) on processor 0
    max(U) = (1.3615684 3.5293706 1.1751544) at location (0.05 0.43 0.07) on processor 0
    min(alpha.water) = -1.3909377e-06 at location (0 0.19 0.05) on processor 0
    max(alpha.water) = 0.84352266 at location (0.99 0.03 0.85) on processor 1

volRegion water_in_domain write:
    volIntegrate() of alpha.water = 0.039845042

Courant Number mean: 0.16168412 max: 0.93718907
Interface Courant Number mean: 0.031664905 max: 0.87435965
deltaT = 0.0031622024
Time = 1.98103

PIMPLE: iteration 1
smoothSolver:  Solving for alpha.water, Initial residual = 0.014259422, Final residual = 5.0642962e-10, No Iterations 4
Phase-1 volume fraction = 0.039845008  Min(alpha.water) = -1.3909377e-06  Max(alpha.water) = 0.84352266
MULES: Correcting alpha.water
MULES: Correcting alpha.water
Phase-1 volume fraction = 0.039845009  Min(alpha.water) = -1.692425e-06  Max(alpha.water) = 0.84352266
DICPCG:  Solving for p_rgh, Initial residual = 0.047351841, Final residual = 0.0013174862, No Iterations 2
time step continuity errors : sum local = 0.00041111007, global = 2.0583773e-06, cumulative = -6.6052469e-05
DICPCG:  Solving for p_rgh, Initial residual = 0.0016657939, Final residual = 7.1136068e-05, No Iterations 7
time step continuity errors : sum local = 2.203575e-05, global = 4.0665163e-07, cumulative = -6.5645818e-05
DICPCG:  Solving for p_rgh, Initial residual = 0.00020929659, Final residual = 9.1704714e-08, No Iterations 75
time step continuity errors : sum local = 2.8415066e-08, global = 1.9313941e-09, cumulative = -6.5643886e-05
ExecutionTime = 477.05 s  ClockTime = 540 s

fieldMinMax minmaxdomain write:
    min(p) = -90.469379 at location (0.63 0.09 0.91) on processor 1
    max(p) = 725.44556 at location (0.59 0 0.49) on processor 1
    min(p_rgh) = -5.1417525 at location (0.65 0.21 0.85) on processor 1
    max(p_rgh) = 1306.8512 at location (0.61 0.19 0.45) on processor 1
    min(U) = (-1.1620683 -0.92534406 -0.92952375) at location (0.29 0.09 0.27) on processor 0
    max(U) = (1.3211609 3.4809723 1.263658) at location (0.05 0.43 0.07) on processor 0
    min(alpha.water) = -1.692425e-06 at location (0 0.19 0.05) on processor 0
    max(alpha.water) = 0.84352266 at location (0.97 0.01 0.85) on processor 1

volRegion water_in_domain write:
    volIntegrate() of alpha.water = 0.039845009

Courant Number mean: 0.16145574 max: 0.91838424
Interface Courant Number mean: 0.031484345 max: 0.91838424
deltaT = 0.0031622024
Time = 1.98419

PIMPLE: iteration 1
smoothSolver:  Solving for alpha.water, Initial residual = 0.014182279, Final residual = 4.895545e-10, No Iterations 4
Phase-1 volume fraction = 0.039844976  Min(alpha.water) = -1.692425e-06  Max(alpha.water) = 0.84352265
MULES: Correcting alpha.water
MULES: Correcting alpha.water
Phase-1 volume fraction = 0.039844977  Min(alpha.water) = -1.3656097e-06  Max(alpha.water) = 0.84352265
DICPCG:  Solving for p_rgh, Initial residual = 0.047316059, Final residual = 0.0013197267, No Iterations 2
time step continuity errors : sum local = 0.0004118475, global = 2.0914899e-06, cumulative = -6.3552396e-05
DICPCG:  Solving for p_rgh, Initial residual = 0.0016664533, Final residual = 7.0054238e-05, No Iterations 7
time step continuity errors : sum local = 2.1699431e-05, global = 4.3665454e-07, cumulative = -6.3115742e-05
DICPCG:  Solving for p_rgh, Initial residual = 0.00020828843, Final residual = 9.5886022e-08, No Iterations 73
time step continuity errors : sum local = 2.9708961e-08, global = 1.5729552e-09, cumulative = -6.3114169e-05
ExecutionTime = 477.74 s  ClockTime = 540 s

fieldMinMax minmaxdomain write:
    min(p) = -81.176526 at location (0.63 0.09 0.91) on processor 1
    max(p) = 726.19417 at location (0.59 0 0.49) on processor 1
    min(p_rgh) = -4.5171776 at location (0.65 0.21 0.85) on processor 1
    max(p_rgh) = 1277.7194 at location (0.63 0.17 0.47) on processor 1
    min(U) = (-1.15689 -0.91898449 -0.90903259) at location (0.29 0.09 0.27) on processor 0
    max(U) = (1.2790693 3.4082443 1.3244429) at location (0.05 0.43 0.07) on processor 0
    min(alpha.water) = -1.3656097e-06 at location (0 0.19 0.05) on processor 0
    max(alpha.water) = 0.84352265 at location (0.99 0.03 0.85) on processor 1

volRegion water_in_domain write:
    volIntegrate() of alpha.water = 0.039844977

Courant Number mean: 0.16124235 max: 0.89008881
Interface Courant Number mean: 0.031258327 max: 0.89008881
deltaT = 0.0031622024
Time = 1.98735

PIMPLE: iteration 1
smoothSolver:  Solving for alpha.water, Initial residual = 0.014099564, Final residual = 4.7302404e-10, No Iterations 4
Phase-1 volume fraction = 0.039844946  Min(alpha.water) = -1.3656097e-06  Max(alpha.water) = 0.84352265
MULES: Correcting alpha.water
MULES: Correcting alpha.water
Phase-1 volume fraction = 0.039844946  Min(alpha.water) = -3.0868196e-07  Max(alpha.water) = 0.84352265
DICPCG:  Solving for p_rgh, Initial residual = 0.047271456, Final residual = 0.001307821, No Iterations 2
time step continuity errors : sum local = 0.00040808379, global = 2.0657599e-06, cumulative = -6.1048409e-05
DICPCG:  Solving for p_rgh, Initial residual = 0.0016529855, Final residual = 7.1337874e-05, No Iterations 7
time step continuity errors : sum local = 2.209697e-05, global = 4.409933e-07, cumulative = -6.0607416e-05
DICPCG:  Solving for p_rgh, Initial residual = 0.00020751237, Final residual = 8.8871392e-08, No Iterations 74
time step continuity errors : sum local = 2.7537408e-08, global = -5.1699874e-10, cumulative = -6.0607933e-05
ExecutionTime = 478.45 s  ClockTime = 541 s

fieldMinMax minmaxdomain write:
    min(p) = -75.512379 at location (0.63 0.11 0.91) on processor 1
    max(p) = 726.49059 at location (0.59 0 0.49) on processor 1
    min(p_rgh) = -3.980829 at location (0.65 0.21 0.85) on processor 1
    max(p_rgh) = 1268.2024 at location (0.63 0.17 0.47) on processor 1
    min(U) = (-1.0357972 -0.90313629 -1.0550151) at location (0.29 0.17 0.31) on processor 0
    max(U) = (1.6928883 3.295239 1.0220064) at location (0.05 0.45 0.07) on processor 0
    min(alpha.water) = -3.0868196e-07 at location (0 0.11 0.13) on processor 0
    max(alpha.water) = 0.84352265 at location (0.99 0.03 0.85) on processor 1

volRegion water_in_domain write:
    volIntegrate() of alpha.water = 0.039844946

Courant Number mean: 0.16102956 max: 0.87463508
Interface Courant Number mean: 0.031090387 max: 0.85512754
deltaT = 0.0031622024
Time = 1.99051

PIMPLE: iteration 1
smoothSolver:  Solving for alpha.water, Initial residual = 0.014022351, Final residual = 4.5436075e-10, No Iterations 4
Phase-1 volume fraction = 0.039844917  Min(alpha.water) = -3.0868196e-07  Max(alpha.water) = 0.84352265
MULES: Correcting alpha.water
MULES: Correcting alpha.water
Phase-1 volume fraction = 0.039844917  Min(alpha.water) = -2.77699e-07  Max(alpha.water) = 0.84352265
DICPCG:  Solving for p_rgh, Initial residual = 0.047165478, Final residual = 0.0013006818, No Iterations 2
time step continuity errors : sum local = 0.00040642918, global = 2.1031357e-06, cumulative = -5.8504797e-05
DICPCG:  Solving for p_rgh, Initial residual = 0.001642999, Final residual = 6.6259894e-05, No Iterations 7
time step continuity errors : sum local = 2.0544671e-05, global = 4.6526998e-07, cumulative = -5.8039527e-05
DICPCG:  Solving for p_rgh, Initial residual = 0.00020257408, Final residual = 9.6551514e-08, No Iterations 72
time step continuity errors : sum local = 2.9949744e-08, global = -3.3933527e-10, cumulative = -5.8039866e-05
ExecutionTime = 479.26 s  ClockTime = 542 s

fieldMinMax minmaxdomain write:
    min(p) = -77.781238 at location (0.75 0.09 0.57) on processor 1
    max(p) = 728.50632 at location (0.83 0 0.31) on processor 1
    min(p_rgh) = -3.1352365 at location (0.65 0.21 0.85) on processor 1
    max(p_rgh) = 1256.0592 at location (0.61 0.17 0.45) on processor 1
    min(U) = (-1.1590131 -0.88556794 -0.86802185) at location (0.29 0.09 0.27) on processor 0
    max(U) = (1.2132222 3.2057678 1.3278288) at location (0.05 0.43 0.07) on processor 0
    min(alpha.water) = -2.77699e-07 at location (0 0.23 0.03) on processor 0
    max(alpha.water) = 0.84352265 at location (0.99 0.03 0.85) on processor 1

volRegion water_in_domain write:
    volIntegrate() of alpha.water = 0.039844917

Courant Number mean: 0.16082107 max: 0.87883254
Interface Courant Number mean: 0.030876835 max: 0.81399141
deltaT = 0.0031622024
Time = 1.99368

PIMPLE: iteration 1
smoothSolver:  Solving for alpha.water, Initial residual = 0.013956234, Final residual = 4.3495415e-10, No Iterations 4
Phase-1 volume fraction = 0.039844889  Min(alpha.water) = -2.77699e-07  Max(alpha.water) = 0.84352264
MULES: Correcting alpha.water
MULES: Correcting alpha.water
Phase-1 volume fraction = 0.039844889  Min(alpha.water) = -6.2534974e-07  Max(alpha.water) = 0.84352264
DICPCG:  Solving for p_rgh, Initial residual = 0.04732983, Final residual = 0.0012979978, No Iterations 2
time step continuity errors : sum local = 0.00040532593, global = 2.092882e-06, cumulative = -5.5946984e-05
DICPCG:  Solving for p_rgh, Initial residual = 0.0016410608, Final residual = 6.7675312e-05, No Iterations 7
time step continuity errors : sum local = 2.0961978e-05, global = 4.7496904e-07, cumulative = -5.5472015e-05
DICPCG:  Solving for p_rgh, Initial residual = 0.00020280709, Final residual = 9.95496e-08, No Iterations 71
time step continuity errors : sum local = 3.0850064e-08, global = 2.1639242e-09, cumulative = -5.5469851e-05
ExecutionTime = 480.06 s  ClockTime = 543 s

fieldMinMax minmaxdomain write:
    min(p) = -77.773149 at location (0.63 0.11 0.91) on processor 1
    max(p) = 761.11538 at location (0.79 0 0.29) on processor 1
    min(p_rgh) = -3.0425315 at location (0.63 0.21 0.87) on processor 1
    max(p_rgh) = 1256.6682 at location (0.61 0.17 0.45) on processor 1
    min(U) = (-1.1633661 -0.86150898 -0.84744557) at location (0.29 0.09 0.27) on processor 0
    max(U) = (0.99856829 3.1600257 1.2959903) at location (0.05 0.43 0.05) on processor 0
    min(alpha.water) = -6.2534974e-07 at location (0 0.23 0.03) on processor 0
    max(alpha.water) = 0.84352264 at location (0.99 0.03 0.85) on processor 1

volRegion water_in_domain write:
    volIntegrate() of alpha.water = 0.039844889

Courant Number mean: 0.16063117 max: 0.87691119
Interface Courant Number mean: 0.030727391 max: 0.76779942
deltaT = 0.0031622024
Time = 1.99684

PIMPLE: iteration 1
smoothSolver:  Solving for alpha.water, Initial residual = 0.013882952, Final residual = 4.1650502e-10, No Iterations 4
Phase-1 volume fraction = 0.039844863  Min(alpha.water) = -6.2534974e-07  Max(alpha.water) = 0.84352263
MULES: Correcting alpha.water
MULES: Correcting alpha.water
Phase-1 volume fraction = 0.039844863  Min(alpha.water) = -1.6712075e-06  Max(alpha.water) = 0.84352263
DICPCG:  Solving for p_rgh, Initial residual = 0.047472501, Final residual = 0.0012821362, No Iterations 2
time step continuity errors : sum local = 0.00039949294, global = 2.0751138e-06, cumulative = -5.3394738e-05
DICPCG:  Solving for p_rgh, Initial residual = 0.0016287751, Final residual = 7.1197131e-05, No Iterations 7
time step continuity errors : sum local = 2.2008661e-05, global = 4.7736041e-07, cumulative = -5.2917377e-05
DICPCG:  Solving for p_rgh, Initial residual = 0.0002040375, Final residual = 9.6889228e-08, No Iterations 73
time step continuity errors : sum local = 2.9966682e-08, global = 1.3002967e-09, cumulative = -5.2916077e-05
ExecutionTime = 480.79 s  ClockTime = 544 s

fieldMinMax minmaxdomain write:
    min(p) = -78.595002 at location (0.63 0.11 0.91) on processor 1
    max(p) = 785.49222 at location (0.79 0 0.29) on processor 1
    min(p_rgh) = -4.202172 at location (0.63 0.21 0.87) on processor 1
    max(p_rgh) = 1262.551 at location (0.61 0.17 0.45) on processor 1
    min(U) = (-1.1682931 -0.83131615 -0.82749116) at location (0.29 0.09 0.27) on processor 0
    max(U) = (1.6587569 3.0526995 1.2254944) at location (0.05 0.45 0.07) on processor 0
    min(alpha.water) = -1.6712075e-06 at location (0 0.23 0.03) on processor 0
    max(alpha.water) = 0.84352263 at location (0.99 0.03 0.85) on processor 1

volRegion water_in_domain write:
    volIntegrate() of alpha.water = 0.039844863

Courant Number mean: 0.16043738 max: 0.86960928
Interface Courant Number mean: 0.030494175 max: 0.7331498
deltaT = 0.0031622024
Time = 2

PIMPLE: iteration 1
smoothSolver:  Solving for alpha.water, Initial residual = 0.013814555, Final residual = 4.0187778e-10, No Iterations 4
Phase-1 volume fraction = 0.039844837  Min(alpha.water) = -1.6712075e-06  Max(alpha.water) = 0.84352263
MULES: Correcting alpha.water
MULES: Correcting alpha.water
Phase-1 volume fraction = 0.039844838  Min(alpha.water) = -1.3091364e-07  Max(alpha.water) = 0.84352263
DICPCG:  Solving for p_rgh, Initial residual = 0.047656737, Final residual = 0.0012648909, No Iterations 2
time step continuity errors : sum local = 0.0003942611, global = 2.0981959e-06, cumulative = -5.0817881e-05
DICPCG:  Solving for p_rgh, Initial residual = 0.0016101145, Final residual = 7.0928444e-05, No Iterations 7
time step continuity errors : sum local = 2.1929902e-05, global = 4.8385164e-07, cumulative = -5.0334029e-05
DICPCG:  Solving for p_rgh, Initial residual = 0.00020431756, Final residual = 8.591369e-08, No Iterations 72
time step continuity errors : sum local = 2.6577085e-08, global = 1.1461785e-09, cumulative = -5.0332883e-05
ExecutionTime = 481.79 s  ClockTime = 545 s

fieldMinMax minmaxdomain write:
    min(p) = -78.819219 at location (0.63 0.11 0.91) on processor 1
    max(p) = 801.84194 at location (0.79 0 0.29) on processor 1
    min(p_rgh) = -3.7945625 at location (0.63 0.21 0.87) on processor 1
    max(p_rgh) = 1271.5304 at location (0.61 0.17 0.45) on processor 1
    min(U) = (-1.172597 -0.79181208 -0.80992379) at location (0.29 0.09 0.27) on processor 0
    max(U) = (0.87956563 3.3050601 1.1122577) at location (0.05 0.43 0.05) on processor 0
    min(alpha.water) = -1.3091364e-07 at location (0 0.03 0.99) on processor 0
    max(alpha.water) = 0.84352263 at location (0.97 0.01 0.85) on processor 1

volRegion water_in_domain write:
    volIntegrate() of alpha.water = 0.039844838

End

Finalising parallel run
